260
Chem3D Core 22.201282423573D
N       5.720400    8.578600    7.361300
C       6.605300    8.002000    8.475000
C       6.121700    6.607100    8.918300
C       6.486200    9.469200    6.373300
C       7.232500    8.631800    5.316000
C       4.424900    9.217200    7.880500
C       3.269500    9.055000    6.873300
N       5.970800    5.774400    7.739100
N       6.295600    7.694800    4.723700
N       3.176100    7.655600    6.499300
H       6.602200    8.745900    9.304600
H       7.638200    7.938800    8.064100
H       6.837800    6.157200    9.644500
H       5.126600    6.680300    9.412200
H       7.167800   10.108800    6.979900
H       5.732800   10.126100    5.882500
H       7.688900    9.293200    4.543500
H       8.047400    8.041700    5.793000
H       4.659800   10.283600    8.102800
H       4.176000    8.705700    8.837800
H       2.313100    9.423000    7.311900
H       3.475400    9.640600    5.948900
C       6.256800    4.533800    7.875700
C       6.450600   -6.969400    3.246400
C       7.764300    2.777500   -4.307700
C       6.374100   -1.277400    2.373300
C       6.256300   -0.425900    3.479000
C       6.326300    0.966700    3.354800
C       6.504700    1.503400    2.073600
C       6.627800    0.692500    0.939100
C       6.551600   -0.695200    1.112600
C       6.374600   -2.767200    2.544700
C       6.941500   -3.614900    1.588700
C       6.953100   -4.986300    1.819700
C       6.409800   -5.511900    2.994300
N       5.859200   -4.703500    3.917000
C       5.843600   -3.378000    3.690000
C       6.276600    1.854800    4.562100
C       6.568600    1.371000    5.840700
C       6.549600    2.249100    6.918900
C       6.247700    3.599500    6.728200
N       5.961900    4.071900    5.502100
C       5.974900    3.220700    4.461100
C       6.897100    1.286500   -0.411300
C       6.662200    0.568600   -1.593000
C       7.433500    2.569400   -0.554200
C       7.703900    3.053500   -1.829600
C       7.448000    2.267100   -2.955200
N       6.928600    1.033500   -2.826500
H       7.405700   -3.229300    0.667800
H       7.409900   -5.656600    1.073500
H       5.374200   -2.767800    4.474300
H       6.841100    0.319300    6.019100
H       6.791100    1.873400    7.926600
H       5.726300    3.660800    3.485200
H       6.231900   -0.441600   -1.549300
H       7.675600    3.201400    0.314300
H       8.137900    4.060000   -1.945200
H       6.525900    4.136400    8.868500
N       5.190600   -8.571300    6.818500
C       5.634400   -8.115100    8.215200
C       6.327900   -6.739300    8.168700
C       3.908600   -9.415000    6.831000
C       2.649000   -8.531000    6.917800
C       6.323600   -9.195200    5.992100
C       6.149600   -8.912300    4.486900
N       5.472600   -5.815400    7.446400
N       2.725000   -7.516000    5.883100
N       5.949200   -7.486300    4.305300
H       6.291300   -8.918300    8.621300
H       4.715900   -8.062200    8.842600
H       6.541700   -6.373600    9.199700
H       7.293200   -6.809800    7.618200
H       4.000100  -10.124700    7.685200
H       3.902000  -10.003000    5.885300
H       1.728100   -9.150300    6.812500
H       2.606900   -8.010900    7.901400
H       6.332500  -10.283600    6.230500
H       7.274200   -8.747400    6.360700
H       5.247500   -9.434700    4.095700
H       7.035700   -9.274100    3.915600
N       7.368200    0.410800   -7.647500
C       8.440500    1.503500   -7.537000
C       7.984600    2.654400   -6.618600
C       7.949400   -0.998500   -7.825500
C       8.394300   -1.602600   -6.479000
C       6.258600    0.744600   -8.653900
C       4.902400    0.154700   -8.219100
N       7.529100    2.089300   -5.361700
N       7.296500   -1.488600   -5.536600
N       4.646700    0.548600   -6.845800
H       8.663600    1.839900   -8.575600
H       9.352300    1.017700   -7.121900
H       8.814700    3.381200   -6.460300
H       7.128300    3.199800   -7.075900
H       8.784300   -0.910900   -8.558400
H       7.146800   -1.621800   -8.280800
H       8.708200   -2.664100   -6.610800
H       9.257800   -1.034300   -6.065100
H       6.599100    0.364600   -9.644500
H       6.196200    1.855200   -8.706600
H       4.934600   -0.957800   -8.253000
H       4.089400    0.499700   -8.899000
N      -7.800100    0.625000    0.387600
C      -8.018700    0.411400   -1.116500
C      -6.872600    1.020300   -1.948100
C      -8.356200   -0.514300    1.252700
C      -7.387000   -1.711800    1.304600
C      -8.218800    2.019600    0.872900
C      -7.334500    2.503300    2.039000
N      -5.610700    0.535300   -1.419900
N      -6.070800   -1.224700    1.674800
N      -5.942600    2.362600    1.652100
H      -9.013000    0.850700   -1.361600
H      -8.071000   -0.688800   -1.280400
H      -6.989200    0.759400   -3.025500
H      -6.874700    2.130100   -1.857500
H      -9.352300   -0.780800    0.830400
H      -8.508100   -0.097400    2.274000
H      -7.752800   -2.480600    2.024000
H      -7.303500   -2.187200    0.301200
H      -9.297400    1.954000    1.145000
H      -8.117600    2.706400    0.002300
H      -7.501900    1.872000    2.940800
H      -7.578000    3.558500    2.303500
C       6.457000    7.434900    3.480200
C      -5.135900    3.257100    2.086700
C       3.426000    0.780800   -6.536200
C       0.360200    3.412000    0.373000
C       1.359400    4.099400    1.072000
C       2.668200    4.205800    0.584600
C       2.967200    3.584500   -0.633800
C       2.000900    2.886100   -1.368600
C       0.706400    2.806700   -0.841500
C      -1.052300    3.378500    0.875500
C      -1.528400    4.324100    1.788300
C      -2.859600    4.271700    2.187100
C      -3.713600    3.289900    1.679500
N      -3.262500    2.374300    0.804100
C      -1.973500    2.422500    0.423400
C       3.698800    5.014500    1.314400
C       4.825200    5.525900    0.663400
C       5.726500    6.306200    1.379400
C       5.508500    6.580800    2.731500
N       4.429600    6.089300    3.365900
C       3.561600    5.330200    2.673900
C       2.328300    2.297500   -2.708400
C       3.650400    2.032700   -3.094500
C       1.333800    2.022800   -3.651500
C       1.698700    1.517900   -4.894800
C       3.042600    1.291700   -5.201400
N       4.005000    1.549800   -4.298500
H      -0.889000    5.129100    2.182400
H      -3.241300    5.023000    2.897500
H      -1.659200    1.645100   -0.286900
H       5.008800    5.353800   -0.408500
H       6.609500    6.721000    0.866300
H       2.703400    4.949800    3.245400
H       4.477700    2.217100   -2.394900
H       0.269100    2.219600   -3.451800
H       0.918100    1.311300   -5.645000
H       7.318400    7.857000    2.936400
H      -5.497300    4.035400    2.779200
H       2.627200    0.606300   -7.276100
C       1.999300    7.200100    6.281600
C      -5.360800   -1.998500    2.407700
C       5.473600   -4.600600    7.851600
C      -0.308000   -0.268600    4.562700
C      -0.067000    1.104100    4.700900
C       1.096500    1.596800    5.303700
C       2.041700    0.670300    5.761500
C       1.844500   -0.710800    5.645500
C       0.665400   -1.156700    5.035400
C      -1.597700   -0.770000    3.984700
C      -2.068800   -2.058800    4.251800
C      -3.292900   -2.456300    3.724800
C      -4.046300   -1.578500    2.941900
N      -3.598300   -0.338600    2.677200
C      -2.411900    0.042800    3.182700
C       1.296600    3.068400    5.511600
C       0.221900    3.962300    5.507600
C       0.460300    5.310900    5.749100
C       1.756500    5.768200    5.997600
N       2.796100    4.915500    5.999400
C       2.565000    3.612400    5.760200
C       2.833800   -1.684100    6.213700
C       2.866000   -3.025700    5.806200
C       3.744000   -1.309200    7.206300
C       4.609600   -2.264100    7.728500
C       4.568800   -3.583500    7.271700
N       3.698900   -3.951200    6.314500
H      -1.513800   -2.762900    4.890800
H      -3.672900   -3.467600    3.943200
H      -2.093200    1.063000    2.927200
H      -0.814900    3.628600    5.346200
H      -0.386300    6.016600    5.758400
H       3.452600    2.964300    5.766300
H       2.183200   -3.381300    5.022100
H       3.779600   -0.285300    7.609600
H       5.320400   -1.974700    8.519600
H       1.131400    7.879800    6.309400
H       6.157300   -4.289600    8.658900
C      -4.676800    0.328900   -2.271300
C       7.165000   -2.444400   -4.694600
C       1.618200   -7.170000    5.340000
C       2.648100   -2.688000   -1.130000
C       1.474800   -2.007700   -1.479000
C       0.307400   -2.098700   -0.711700
C       0.341700   -2.887700    0.444900
C       1.491000   -3.586000    0.833800
C       2.634800   -3.464700    0.034600
C       3.859900   -2.636300   -2.011800
C       4.843900   -3.628100   -1.964600
C       5.925100   -3.553100   -2.835900
C       6.026400   -2.502900   -3.751300
N       5.086000   -1.542800   -3.800400
C       4.043900   -1.613400   -2.953500
C      -0.959500   -1.425000   -1.147500
C      -1.166600   -1.041700   -2.475800
C      -2.378300   -0.460100   -2.832900
C      -3.379400   -0.264800   -1.878600
N      -3.186600   -0.627200   -0.598200
C      -2.012400   -1.184400   -0.252800
C       1.480500   -4.487100    2.032400
C       2.667400   -4.898400    2.656300
C       0.288500   -4.992200    2.559600
C       0.340700   -5.858900    3.645900
C       1.568500   -6.225400    4.202100
N       2.719300   -5.740900    3.703300
H       4.776900   -4.485100   -1.276600
H       6.696700   -4.339800   -2.809500
H      -0.409800   -1.210900   -3.257300
H      -2.549500   -0.167600   -3.881700
H      -1.908300   -1.452900    0.807700
H       3.637500   -4.528600    2.296300
H      -0.692700   -4.747500    2.124200
H      -0.596600   -6.268400    4.056500
H      -4.830500    0.589400   -3.331700
H       0.667400   -7.583800    5.715200
H       8.220600    3.777700   -4.393100
H       6.137900   -0.862900    4.478900
H       6.583500    2.592000    1.957200
H       6.666800   -1.349400    0.238900
H       1.099000    4.597200    2.014900
H       3.982800    3.676600   -1.039700
H      -0.067400    2.280900   -1.415500
H      -0.827100    1.816700    4.355900
H       2.950800    1.035600    6.256200
H       0.481900   -2.235800    4.953700
H       1.458000   -1.410400   -2.399600
H      -0.569100   -2.989300    1.048900
H       3.540000   -4.020900    0.310400
H       6.935500   -7.614400    2.494900
H       7.909200   -3.257400   -4.663400
H       3.311300   -0.798000   -3.033400
H      -5.728200   -3.006500    2.662000
H       5.395100    7.706000    6.770500
H       4.921000   -7.644700    6.284700
H      -6.707000    0.586900    0.528400
H       6.870000    0.395100   -6.663700
