262
Chem3D Core 22.201282423593D
N      -3.332000    8.016900    1.016200
C      -3.939200    8.147700    2.343600
C      -3.130300    7.329000    3.384000
C      -2.192800    8.915900    0.811900
C      -1.153400    8.254500   -0.131000
C      -4.310500    8.068200   -0.073700
C      -4.966000    6.675400   -0.268000
N      -2.083100    6.528800    2.785500
N      -1.470100    6.878000   -0.447700
N      -4.367500    5.647400    0.556700
Mg     -2.267200    5.451600    0.941000
H      -4.978200    7.746000    2.315600
H      -4.009300    9.221800    2.632900
H      -2.699100    7.997900    4.163900
H      -3.819400    6.623200    3.901900
H      -1.698800    9.114200    1.790800
H      -2.540500    9.897300    0.414100
H      -1.040300    8.844300   -1.069500
H      -0.160700    8.249100    0.374700
H      -3.794100    8.345600   -1.021300
H      -5.073500    8.855400    0.127700
H      -6.062700    6.725400   -0.078000
H      -4.830800    6.358100   -1.327500
C      -0.921900    6.433500    3.307700
C       7.462200   -2.589200    4.399700
C       2.995000    0.400200   -6.759800
C       4.374200    0.940100    1.073700
C       3.564700    1.937400    1.631300
C       2.713800    2.722200    0.842000
C       2.688200    2.488300   -0.538600
C       3.485200    1.502000   -1.136500
C       4.322200    0.738400   -0.312800
C       5.245700    0.079600    1.934500
C       6.459900   -0.429500    1.460300
C       7.211000   -1.283000    2.266500
C       6.747600   -1.630300    3.535600
N       5.598900   -1.119100    3.994700
C       4.862800   -0.280600    3.237300
C       1.828400    3.752200    1.473200
C       2.218600    4.436300    2.630200
C       1.339400    5.337900    3.227900
C       0.076300    5.549900    2.675600
N      -0.281400    4.913500    1.553600
C       0.557900    4.046600    0.951700
C       3.408100    1.259600   -2.613400
C       3.599000   -0.018400   -3.168100
C       3.110300    2.301800   -3.498100
C       2.986800    2.035400   -4.859100
C       3.156700    0.735400   -5.333600
N       3.464500   -0.258800   -4.490700
H       6.840500   -0.165500    0.458800
H       8.164500   -1.692900    1.889100
H       3.914700    0.106000    3.640100
H       3.213800    4.281200    3.080800
H       1.643400    5.870200    4.146500
H       0.223000    3.528100    0.041000
H       3.836900   -0.855800   -2.496000
H       2.980600    3.338600   -3.144000
H       2.749600    2.857700   -5.557100
H      -0.677400    6.963300    4.247100
N       7.006300   -2.120000    8.023600
C       8.017100   -1.085400    7.786900
C       7.359000    0.169300    7.154500
C       6.249500   -1.914500    9.261600
C       4.799500   -2.439700    9.093900
C       7.531400   -3.481600    7.887200
C       7.561800   -3.894100    6.391900
N       5.965600   -0.030500    6.817100
N       4.497700   -2.849500    7.738800
N       6.946400   -2.915300    5.521200
Mg      5.155100   -1.826700    5.972500
H       8.782700   -1.472900    7.076300
H       8.545300   -0.836100    8.736200
H       7.464800    1.051800    7.826600
H       7.888800    0.414400    6.205500
H       6.201500   -0.824600    9.488300
H       6.766800   -2.406100   10.117800
H       4.599700   -3.279500    9.798600
H       4.088200   -1.621000    9.349300
H       6.865500   -4.190500    8.430900
H       8.541200   -3.555600    8.353300
H       6.989000   -4.841600    6.267600
H       8.606000   -4.096300    6.059400
N       5.034500   -2.585900   -8.200000
C       4.453500   -1.552300   -9.058500
C       3.059900   -1.175100   -8.531300
C       6.453200   -2.400100   -7.890000
C       6.591900   -1.481900   -6.665400
C       4.658000   -3.956500   -8.549700
C       4.354700   -4.745400   -7.266100
N       3.145700   -0.810300   -7.133500
N       5.803200   -2.000700   -5.568500
N       3.370100   -4.038900   -6.474800
Mg      3.662200   -2.135700   -5.527600
H       4.412600   -1.895800  -10.117800
H       5.090700   -0.638500   -9.042100
H       2.644000   -0.329300   -9.126000
H       2.345200   -2.024400   -8.617000
H       7.000100   -1.993700   -8.771800
H       6.923100   -3.380200   -7.645000
H       7.663000   -1.403900   -6.367300
H       6.232200   -0.451000   -6.883600
H       5.458500   -4.444700   -9.152000
H       3.739700   -3.952100   -9.180700
H       5.265600   -4.873000   -6.638800
H       3.983800   -5.764000   -7.524000
N      -7.025600   -7.884300    1.921900
C      -7.283200   -8.345900    0.556800
C      -6.873300   -7.248800   -0.438400
C      -6.434500   -8.888800    2.807500
C      -4.906200   -8.877000    2.644400
C      -8.108900   -7.101100    2.518700
C      -7.514800   -5.902400    3.275300
N      -5.505000   -6.846700   -0.192200
N      -4.401300   -7.535500    2.843600
N      -6.644600   -5.148300    2.398600
Mg     -4.794300   -5.852900    1.571900
H      -8.352500   -8.634100    0.432400
H      -6.678500   -9.256100    0.339900
H      -6.983900   -7.621600   -1.482800
H      -7.515500   -6.344700   -0.339100
H      -6.861600   -9.897300    2.601600
H      -6.672900   -8.650400    3.869400
H      -4.440000   -9.577200    3.375300
H      -4.599800   -9.207200    1.626300
H      -8.735400   -7.737400    3.185300
H      -8.782700   -6.710500    1.722100
H      -6.911500   -6.229600    4.152100
H      -8.333300   -5.251200    3.659800
C      -1.328500    6.406100   -1.625500
C      -6.977900   -3.991500    1.976200
C       2.181800   -4.486700   -6.352100
C      -3.289500   -1.311600   -1.529700
C      -3.147200    0.081700   -1.476700
C      -2.195000    0.756800   -2.250200
C      -1.370200    0.002600   -3.095600
C      -1.477900   -1.391600   -3.176400
C      -2.443900   -2.029700   -2.384900
C      -4.299900   -2.003500   -0.665900
C      -5.489000   -1.365600   -0.295800
C      -6.380900   -2.011900    0.556400
C      -6.085800   -3.286700    1.038200
N      -4.959200   -3.907100    0.665200
C      -4.086700   -3.301000   -0.168500
C      -2.030300    2.241600   -2.153100
C      -1.610700    3.001500   -3.250900
C      -1.403400    4.371900   -3.101900
C      -1.607800    4.976700   -1.861600
N      -2.035600    4.249800   -0.822300
C      -2.255500    2.925700   -0.947200
C      -0.569500   -2.192700   -4.058000
C       0.751800   -1.790800   -4.321800
C      -0.998500   -3.395100   -4.630200
C      -0.111800   -4.147100   -5.396400
C       1.196200   -3.702600   -5.586600
N       1.600200   -2.540200   -5.058500
H      -5.745300   -0.360800   -0.672200
H      -7.318000   -1.507300    0.850700
H      -3.161700   -3.827300   -0.445400
H      -1.443600    2.539000   -4.238700
H      -1.062400    4.970200   -3.965200
H      -2.588800    2.357100   -0.066400
H       1.115100   -0.848400   -3.886200
H      -2.031200   -3.759800   -4.497400
H      -0.449100   -5.097500   -5.846500
H      -0.953000    7.040900   -2.449700
H      -7.923200   -3.518200    2.300900
H       1.885400   -5.446800   -6.813900
C      -5.072300    4.775100    1.167000
C      -3.727600   -7.234600    3.884300
C       5.080400    0.861800    7.040900
C      -1.951100   -1.788200    4.389600
C      -2.684900   -0.726800    3.844500
C      -2.210700    0.592000    3.881100
C      -0.971400    0.836400    4.485500
C      -0.206700   -0.197500    5.041700
C      -0.713500   -1.501700    4.982800
C      -2.446900   -3.200600    4.317700
C      -2.110500   -4.131400    5.306700
C      -2.535900   -5.451400    5.182900
C      -3.290600   -5.840200    4.076900
N      -3.632600   -4.945000    3.141400
C      -3.238200   -3.657400    3.248900
C      -2.996600    1.699900    3.251800
C      -4.395600    1.675200    3.226500
C      -5.090800    2.690100    2.571200
C      -4.391500    3.718900    1.940000
N      -3.054200    3.752000    1.990400
C      -2.361700    2.788200    2.630400
C       1.134600    0.089600    5.643200
C       2.185500   -0.839600    5.570600
C       1.404100    1.311600    6.270100
C       2.684600    1.569100    6.757300
C       3.690300    0.613400    6.613500
N       3.420100   -0.564300    6.037600
H      -1.521600   -3.842100    6.193700
H      -2.268700   -6.186500    5.962600
H      -3.519800   -2.946300    2.458500
H      -4.964000    0.868500    3.720000
H      -6.194500    2.666000    2.542500
H      -1.262400    2.837900    2.635900
H       2.004400   -1.811000    5.086900
H       0.620900    2.079100    6.392700
H       2.900000    2.537300    7.242900
H      -6.174900    4.775600    1.081200
H       5.353900    1.828900    7.502400
C      -4.574900   -7.144800   -1.012800
C       6.360600   -2.510000   -4.540000
C       3.827000   -3.906200    7.486100
C       2.906400   -4.513100   -0.400600
C       1.635600   -5.023400   -0.695100
C       0.750100   -5.429200    0.313700
C       1.165100   -5.313200    1.646400
C       2.427000   -4.804800    1.982600
C       3.281900   -4.411000    0.945700
C       3.836000   -4.054800   -1.483200
C       5.223800   -4.118800   -1.316200
C       6.061100   -3.630300   -2.316100
C       5.515600   -3.078800   -3.474700
N       4.188000   -3.039200   -3.645300
C       3.359800   -3.517100   -2.691800
C      -0.613300   -5.942600   -0.035000
C      -0.838800   -6.630700   -1.232000
C      -2.128700   -7.043400   -1.555900
C      -3.187000   -6.767100   -0.691000
N      -2.967800   -6.129100    0.465700
C      -1.722200   -5.730900    0.803100
C       2.828600   -4.653300    3.416900
C       3.655700   -3.599000    3.838000
C       2.366600   -5.535900    4.399900
C       2.708000   -5.321100    5.734300
C       3.500300   -4.227500    6.083700
N       3.962000   -3.402800    5.136000
H       5.675600   -4.558600   -0.411000
H       7.156300   -3.678300   -2.182900
H      -0.013500   -6.865200   -1.925700
H      -2.307600   -7.584500   -2.501700
H      -1.573500   -5.194300    1.751700
H       4.037600   -2.889700    3.088800
H       1.738500   -6.405200    4.141100
H       2.335200   -6.011200    6.511700
H      -4.796900   -7.682800   -1.953200
H       3.449300   -4.547500    8.304100
H       2.753000    1.194800   -7.489900
H       3.593700    2.107900    2.718000
H       2.023300    3.094600   -1.171700
H       4.954100   -0.042100   -0.762400
H      -3.801600    0.660700   -0.808400
H      -0.618400    0.521000   -3.709300
H      -2.539600   -3.124300   -2.438800
H      -3.657700   -0.931100    3.372500
H      -0.584900    1.866000    4.522000
H      -0.123700   -2.324800    5.413000
H       1.322700   -5.109400   -1.746200
H       0.484300   -5.626800    2.451700
H       4.275600   -4.009900    1.194700
H       8.404600   -3.052100    4.052700
H       7.462100   -2.532300   -4.442800
H       2.273400   -3.457100   -2.851100
H      -3.476000   -8.001600    4.640200
H       3.082200   -4.764500   -1.074800
H       4.245300   -4.157700   -2.901900
