256
Coordinates from ORCA-job trencage
  N   -7.22262126343614      7.90296941769466     -0.57723304563875
  C   -7.41142092788113      8.71581007363919     -1.77026817111410
  C   -7.81760566674730      7.93203128346446     -3.02748010621727
  C   -8.37987355017018      7.05985227528977     -0.33104356358040
  C   -8.37529915084536      6.23511377073937      0.96631712343585
  C   -6.86274637609946      8.70123013777087      0.57839477404428
  C   -5.63195100098244      9.60640145291081      0.40615786294442
  N   -7.03083642384271      6.80420436235044     -3.41221386574915
  N   -7.20729875027390      5.42781833486093      1.10288329625112
  N   -4.46099088295695      8.86169223066120      0.07036078860814
  H   -6.46013030981347      9.20638882053274     -1.98054842278127
  H   -8.18078253108180      9.49683378502860     -1.60693268872876
  H   -8.85030275599671      7.57454647720539     -2.95501599376121
  H   -7.79827619822486      8.62718732765419     -3.87637350808009
  H   -8.43765991050690      6.34977794243364     -1.15923712348200
  H   -9.31277150007913      7.65928099196739     -0.31443808877810
  H   -8.41616494022566      6.89895004373686      1.83444849486938
  H   -9.30012276025105      5.62751862945977      0.95162290660037
  H   -6.63268769722826      8.00264444655821      1.38407688198883
  H   -7.69922929312010      9.35782910430689      0.89372040942769
  H   -5.80124576521372     10.33664948997947     -0.38906247049643
  H   -5.51058437954063     10.15716296127391      1.35834677890208
  C   -5.92651905734870      6.52368802550376     -2.86983710641276
  C   3.32929182436061      1.39813412447848     -9.20675528822400
  C   -4.86720354701795     -5.51630878606906     -3.19651842738687
  C   -1.29326573271699      0.92857237800738     -5.94811466156623
  C   -1.91404528403898      2.07418716174916     -5.45487370061264
  C   -3.04629553802486      1.98005619308581     -4.65380316600905
  C   -3.54466231801713      0.72555115217136     -4.32097037410654
  C   -2.92668277402471     -0.42974683950357     -4.78707818431505
  C   -1.81154543165522     -0.32057558045485     -5.60937179715921
  C   -0.11150802348458      1.02799817737108     -6.81259807606068
  C   0.11465256432108      0.11589326567893     -7.84393710329774
  C   1.24959255674067      0.23858855759326     -8.61845197539535
  C   2.14344922763261      1.28593704824900     -8.36679786320012
  N   1.92529675307480      2.16697849881225     -7.39133035230354
  C   0.85006395799576      2.03294091880800     -6.64788014690057
  C   -3.73330886735810      3.18535154827109     -4.16931081110989
  C   -3.06759734142513      4.21143057212206     -3.50126180932373
  C   -3.78508362987184      5.30358282816974     -3.05259518047421
  C   -5.15759085201005      5.36142752365595     -3.31552824148300
  N   -5.79513674005708      4.38613482847342     -3.96157915165138
  C   -5.10880121378318      3.33803436801212     -4.35782470467840
  C   -3.43640957465920     -1.74344666756285     -4.36999483173788
  C   -3.69477324226983     -2.77931165798579     -5.27042039305781
  C   -3.67682329114832     -2.00583556260391     -3.02194972234405
  C   -4.11893165816464     -3.25601188390941     -2.64585599284983
  C   -4.35004344609101     -4.22146695679545     -3.63126030600985
  N   -4.14747306652506     -3.96712417798586     -4.92259860424713
  H   -0.59941645671466     -0.66899834524919     -8.04716960867502
  H   1.44383499492400     -0.45949727491295     -9.41910856372052
  H   0.74675141050126      2.76230250064069     -5.85469848831555
  H   -2.00549830879199      4.13147648371976     -3.31706556619517
  H   -3.31250690659118      6.10203145346004     -2.50090725772021
  H   -5.67692810849546      2.57380884029690     -4.87518906919029
  H   -3.54061594953264     -2.63334619721373     -6.33313246463199
  H   -3.49286948968377     -1.23223861909543     -2.28881672720614
  H   -4.28470857837618     -3.50536602745732     -1.61056341424265
  H   -5.46250089453425      7.09814072243425     -2.06432445063402
  N   6.95849048673324      2.99489861499066     -8.28458904958096
  C   6.99925553688242      4.35625384556298     -8.79938978466846
  C   7.38893640867198      5.42654623098687     -7.76870316163584
  C   8.20055643033448      2.65503202322098     -7.61187979300070
  C   8.35303305488748      1.20623100488642     -7.12068833334096
  C   6.60282886085056      2.03402442941161     -9.31029406028858
  C   5.28094304977607      2.30446708871462    -10.04754123147382
  N   6.67841826736550      5.47382648808591     -6.53124570569186
  N   7.28063825504922      0.79349472506069     -6.27513222657141
  N   4.16782930283010      2.33665364126787     -9.15408521304754
  H   5.99808607787837      4.59558649861889     -9.15978634716819
  H   7.70751275338048      4.44328046961130     -9.64754016738156
  H   8.45082547889862      5.35845751581138     -7.50921528444402
  H   7.25652792145797      6.40879847989917     -8.23974071601486
  H   8.27114077923565      3.29808063845635     -6.73156602746682
  H   9.07405912151199      2.85441284830618     -8.26549294280070
  H   8.38039913328467      0.52039009433292     -7.97192358642631
  H   9.33050651885943      1.15588744015995     -6.60437264151965
  H   6.49643843031555      1.06838854510365     -8.81431392024228
  H   7.39166573766782      1.95956553747485    -10.08647635428111
  H   5.17604639659511      1.50681300612882    -10.80749082193995
  H   5.31998494360227      3.26515771804809    -10.56672858561832
  N   -3.92497343462947     -8.77009675229832     -3.34438024610711
  C   -5.28837667686853     -8.73727943697319     -3.82480134658621
  C   -6.06391334289081     -7.48971663866549     -3.37438528429280
  C   -3.04146166122876     -9.55621714365207     -4.18254555755323
  C   -2.25839624287265     -8.64621562199141     -5.14872174502767
  C   -3.76177806744431     -9.01561464157373     -1.92785091055031
  C   -2.42562955370760     -8.46419896113602     -1.40122406399792
  N   -5.51454460848490     -6.29890895028384     -3.94319756535131
  N   -1.38752197466974     -7.81591431561068     -4.38160004508112
  N   -2.53589489348230     -7.12258881235489     -0.93251091914116
  H   -5.86126203434818     -9.62708727268822     -3.50317297395771
  H   -5.25542222493155     -8.72279585534963     -4.91545859875958
  H   -7.08663006598171     -7.58487495060985     -3.75279046357631
  H   -6.09420815194017     -7.44357684157027     -2.27385445496737
  H   -3.59904698859028    -10.29623759000546     -4.77237551697218
  H   -2.32036051425974    -10.09349161359669     -3.56373361318158
  H   -1.64301744069505     -9.27310172014044     -5.80004097789164
  H   -2.97010002208615     -8.06206921495775     -5.75303901984960
  H   -3.81358931175196    -10.09579438238808     -1.69677820636196
  H   -4.57254177993766     -8.52374383277480     -1.38975648945943
  H   -1.71315662913012     -8.41863851796334     -2.23356318729397
  H   -2.01238191601345     -9.13661613366931     -0.62891030628506
  N   5.15159318560302      1.56334086132991      8.78968154704570
  C   5.10938967963684      0.11851247287801      8.73120266212259
  C   3.76795877838008     -0.39372163105307      8.17986768501424
  C   6.46938909629732      2.15666503338868      8.74463195937538
  C   7.13713485293878      2.05346253304139      7.36482619385232
  C   4.30049208833436      2.13549278480087      9.81390913956286
  C   3.37038173662340      3.20607524835076      9.21108761439317
  N   3.77167521019854     -0.51837861561795      6.75990245976710
  N   6.43332504128869      2.82045403270641      6.38558898503541
  N   2.46502222737499      2.56410219178100      8.31392181010500
  H   5.27368763065311     -0.33093133172897      9.72813503883844
  H   5.90751160117522     -0.23121666288186      8.07583134343025
  H   3.48986984115359     -1.34104512398034      8.67473860560400
  H   2.99259175337079      0.34956679830668      8.39970117137484
  H   7.15214879046812      1.70277929206399      9.48705013656591
  H   6.36355004916023      3.21790927854175      8.97547156377250
  H   8.13892528955250      2.48617574714295      7.45225667122641
  H   7.23060107828261      0.99583278757393      7.06963361099641
  H   4.89144785292150      2.59602560353298     10.61726065694974
  H   3.67733773625272      1.35723587888505     10.25850517681793
  H   3.98015305948437      3.97576544315553      8.71255679713803
  H   2.78587407062701      3.65765982898776     10.01745556924568
  C   -7.30499716874892      4.17570890096859      1.01166780052690
  C   2.61006780448854      2.73545261024700      7.07261138777672
  C   -1.87829921300112     -6.77439969850140      0.08383302225733
  C   -0.90651226074775      0.38301264608780      3.31275584098836
  C   -1.95819895927838      1.18906232157210      2.89216365394848
  C   -2.94881789784584      0.69426101948594      2.04795616475425
  C   -2.84759907062442     -0.62105083732809      1.60359661443784
  C   -1.79814927818238     -1.44130707465608      2.01176201239150
  C   -0.83617383715774     -0.93512248810178      2.88250435635191
  C   0.08745353283038      0.95757185536390      4.23111654371926
  C   0.77455331119996      2.12192136123222      3.89708873139871
  C   1.63068496328337      2.68077032758079      4.82125315506217
  C   1.75805089125718      2.08714333872307      6.08018508364701
  N   1.10625243563707      0.97095978487260      6.39922500367104
  C   0.32226184300683      0.42164270756240      5.49766206283888
  C   -4.08875038118545      1.54359355306841      1.68240941183112
  C   -5.37146568640190      1.02488645195795      1.50163992467008
  C   -6.42028231168921      1.88335635549599      1.23585754134526
  C   -6.18076309464679      3.26137762032617      1.18535672263240
  N   -4.95200145213531      3.75660869787907      1.32325213895538
  C   -3.95538544775829      2.93172913803852      1.54195505457739
  C   -1.73972447393987     -2.83029137350442      1.54459733897701
  C   -2.12844854774146     -3.17687175612347      0.24636944416727
  C   -1.32670888406255     -3.87683210114336      2.37000686471005
  C   -1.34868345252815     -5.16893803439801      1.88404076611161
  C   -1.82347986759063     -5.40722729709809      0.58838185916399
  N   -2.19291331070264     -4.40713362903305     -0.20998927752550
  H   0.63890658939131      2.56921812541402      2.92193383729112
  H   2.17915480833214      3.58121490175189      4.59600264951887
  H   -0.18322948464110     -0.48640203075573      5.80628120540156
  H   -5.55161229276156     -0.03627102732389      1.59838591936693
  H   -7.42036271309659      1.50048852022733      1.09678666486907
  H   -2.98154485259875      3.39845299352168      1.61220960942635
  H   -2.39062889287121     -2.40667662483834     -0.46662006112672
  H   -1.01012372165313     -3.67749406594763      3.38392780516341
  H   -1.03059376041702     -5.99531790448366      2.50244624130775
  H   -8.27407698357598      3.67471564708998      0.83338533279454
  H   3.36330756403011      3.41925610122368      6.65653135739205
  H   -1.27416870864109     -7.49366452042545      0.66544980065593
  C   -3.54196402277475      8.76934409462006      0.92669597825737
  C   5.77504141438287      2.21229716108938      5.49953105284177
  C   5.64522630895539      4.78459074254892     -6.30775446452448
  C   3.21386510060488      4.73085215657620      1.10981646917620
  C   2.02738379064925      5.43132744363929      1.29305535054263
  C   1.35550356891092      5.99384927851976      0.20879896749408
  C   1.89211409253550      5.84958228104499     -1.06878052822372
  C   3.09282286463783      5.17619648187763     -1.26255162452473
  C   3.74591506527996      4.61717930570195     -0.17000213852670
  C   3.89091226006933      4.07647897924863      2.23769454565369
  C   4.29229809772007      2.74481498456996      2.13807801135938
  C   4.88859493701382      2.13648276796439      3.22167091678249
  C   5.10573073645349      2.88025354995505      4.38615021232255
  N   4.75250885709446      4.16085254616466      4.47530693675698
  C   4.15737416499955      4.72685572257635      3.44457723969886
  C   0.10285761108007      6.72902319998372      0.41877478742074
  C   -0.10338032006263      7.50103531201231      1.56248444662870
  C   -1.30502766819345      8.15846443922688      1.72650976136307
  C   -2.28582855404467      8.05550921293910      0.73315925791494
  N   -2.08730481535094      7.33191850604841     -0.36792953764086
  C   -0.94669295702364      6.69422384994375     -0.50761783005591
  C   3.69086496959532      5.06075816244524     -2.59977549582820
  C   5.02286725755634      5.42475003695100     -2.81033397221264
  C   2.98428901360336      4.57851104242480     -3.69992880904271
  C   3.62404314746823      4.46870490367746     -4.91963555349061
  C   4.95719765466551      4.87975622527214     -5.01995596067177
  N   5.63179568531464      5.35181424294052     -3.97226954490441
  H   4.11053371912172      2.20168103484866      1.22054918248612
  H   5.18473914008290      1.10052192648844      3.19070381759666
  H   3.88579198482540      5.76732774896095      3.57862256050918
  H   0.67548674865290      7.59771920458543      2.30494960508951
  H   -1.48551202484212      8.75775894904700      2.60653238173304
  H   -0.85945035198527      6.10018928076015     -1.40838434422703
  H   5.61865420533643      5.81182379431714     -1.99195481520013
  H   1.95489976010331      4.27001951925661     -3.58350681648927
  H   3.12186504456394      4.06537208193397     -5.78583813203479
  H   -3.62014533651346      9.26500324523719      1.91192302682026
  H   5.19061055016263      4.09112392730243     -7.01974070577610
  C   3.16755848341808     -1.48877402973278      6.23101767239411
  C   -1.64875333952712     -6.58630595388191     -4.27791315252200
  C   7.49499713028007      0.61549049917266     -5.04697547924450
  C   1.70186959041524     -3.06194190809354     -1.38343407955337
  C   1.73013502517910     -2.94805895535941      0.00007725394424
  C   2.66416213007248     -2.11934085242767      0.61723992726036
  C   3.58827313285794     -1.43132449534697     -0.16605542681945
  C   3.59226859610156     -1.55619886973669     -1.55245566190748
  C   2.62872939839445     -2.36450309636885     -2.14993290326515
  C   0.74358126702939     -3.93392718501215     -2.07766685949642
  C   -0.06477739203877     -3.43616522504506     -3.09664295091974
  C   -0.87510594132747     -4.30722870598167     -3.79234385126032
  C   -0.83938889465590     -5.66942516247008     -3.48126532332897
  N   -0.07282050982041     -6.14610807973618     -2.50255798256698
  C   0.66936717747533     -5.30314459436667     -1.81874121293084
  C   2.71590344298191     -1.99332966214952      2.07774744070668
  C   2.48988047226495     -3.07926792527654      2.92452748256065
  C   2.61513754790745     -2.90911899738271      4.28884270566592
  C   3.00460971081972     -1.66170711579287      4.79214654068409
  N   3.19249642820241     -0.61686400205976      3.98784166868917
  C   3.03121697291471     -0.77769235887215      2.69389904086996
  C   4.61138371477056     -0.90280534033466     -2.38253463390715
  C   4.33058137020740     -0.47146981514043     -3.68623855173055
  C   5.92336894394410     -0.72464542824902     -1.94216150050851
  C   6.86030955111486     -0.18292176935095     -2.80036891775459
  C   6.48180589680964      0.14740006386336     -4.10675200798585
  N   5.22228346018554      0.01249440860334     -4.51805774853908
  H   -0.05599921086186     -2.37990167653536     -3.32788944405438
  H   -1.51238211424905     -3.95644641821500     -4.58815929714470
  H   2.23748615006221     -4.04639232327018      2.51324587217880
  H   2.44254392810948     -3.73363982755952      4.96485364015968
  H   3.14620238335442      0.11978775889739      2.10086194205058
  H   3.32206711364151     -0.52399138290443     -4.07515934081756
  H   6.21468027423517     -1.03558026462666     -0.94895626954926
  H   7.88146228673466     -0.04182612767310     -2.47865185548353
  H   2.69621363964822     -2.28453810537071      6.83553395517294
  H   8.49491031362198      0.76317527208759     -4.59931499628077
  H   -4.70109687127406     -5.72083770927206     -2.12847972737093
  H   -1.54299144007975      3.04980712584911     -5.73083444640747
  H   -4.42126643508249      0.65069461494217     -3.69387653051063
  H   -1.32024988342469     -1.21968003998367     -5.95125747701763
  H   -2.02570787513170      2.19852680659861      3.26870327509262
  H   -3.60108652871035     -1.02109755463070      0.94239310990670
  H   -0.00864241957920     -1.55192002090977      3.20114455339601
  H   1.60387100984224      5.49984607148866      2.28432770331253
  H   1.39835359449200      6.30267749056310     -1.91536025976090
  H   4.67667715621428      4.08973284018002     -0.32030579584313
  H   0.99952352959153     -3.48211490041133      0.58981569093470
  H   4.32262410372706     -0.80427705029450      0.31618431182939
  H   2.62582635214431     -2.49763986397303     -3.22123838126790
  H   3.43122459354440      0.57472769707439     -9.93755545491696
  H   -2.48402541167517     -6.11509149346497     -4.81518131156908
  H   1.27512008229945     -5.74141180063170     -1.03373707434911
  H   5.71254688242546      1.11472749126947      5.45781066165401
