256
Chem3D Core 22.201282423573D
N      -7.194700    8.129500   -0.893600
C      -7.256000    9.088700   -2.008000
C      -7.530800    8.484600   -3.401900
C      -8.403800    7.296200   -0.832300
C      -8.419300    6.207400    0.257100
C      -6.923700    8.804400    0.383300
C      -5.585900    9.563700    0.469300
N      -6.849900    7.288600   -3.835100
N      -7.208100    5.419800    0.354900
N      -4.423700    8.755400    0.161100
H      -6.295000    9.646100   -2.067200
H      -8.041600    9.850300   -1.793200
H      -8.617600    8.250800   -3.468300
H      -7.351400    9.258200   -4.183700
H      -8.534900    6.775700   -1.806700
H      -9.297800    7.949700   -0.700600
H      -8.578700    6.674800    1.254900
H      -9.299400    5.543600    0.092600
H      -6.913200    8.049400    1.200000
H      -7.757700    9.505900    0.618800
H      -5.578200   10.428900   -0.230400
H      -5.488300   10.002500    1.489300
C      -5.741800    6.975600   -3.280200
C       3.411600    1.139300   -8.990500
C      -5.332900   -5.341900   -2.934800
C      -1.290800    0.885200   -5.687100
C      -1.910800    2.084400   -5.316200
C      -3.080000    2.089800   -4.555100
C      -3.648700    0.881700   -4.159700
C      -3.055500   -0.330400   -4.511900
C      -1.879200   -0.317000   -5.270300
C      -0.053200    0.897700   -6.526100
C       0.287500   -0.184100   -7.340100
C       1.431900   -0.100400   -8.126000
C       2.223100    1.052700   -8.111300
N       1.904100    2.094100   -7.319000
C       0.803700    2.007500   -6.551000
C      -3.733400    3.366300   -4.199700
C      -3.148600    4.241600   -3.290800
C      -3.821400    5.420500   -2.992000
C      -5.042900    5.714400   -3.607700
N      -5.602100    4.862500   -4.492900
C      -4.958500    3.717000   -4.770500
C      -3.669300   -1.609400   -4.078300
C      -3.854500   -2.666100   -4.975200
C      -4.080800   -1.790300   -2.760200
C      -4.627600   -3.016100   -2.398400
C      -4.765900   -4.037300   -3.344300
N      -4.387000   -3.851000   -4.626700
H      -0.338100   -1.088800   -7.395000
H       1.700600   -0.945500   -8.780400
H       0.593700    2.882000   -5.916700
H      -2.185800    4.003000   -2.809000
H      -3.390500    6.126900   -2.264600
H      -5.432500    3.035500   -5.495300
H      -3.557000   -2.543500   -6.029200
H      -3.960300   -0.988500   -2.012800
H      -4.947800   -3.184200   -1.357500
H      -5.281200    7.644400   -2.536300
N       6.872800    3.345200   -8.413900
C       6.748300    4.648300   -9.086600
C       6.971100    5.889700   -8.196100
C       8.160900    3.219100   -7.717300
C       8.372700    1.918600   -6.919300
C       6.637600    2.233600   -9.345700
C       5.241200    2.187400   -9.995100
N       6.382100    5.969700   -6.881600
N       7.258800    1.523400   -6.082900
N       4.145700    2.185800   -9.047100
H       5.734500    4.735000   -9.536200
H       7.467800    4.691600   -9.937300
H       8.067100    6.010500   -8.040900
H       6.652800    6.804100   -8.747800
H       8.265700    4.058400   -6.994800
H       8.991900    3.329500   -8.452500
H       8.563100    1.073900   -7.619100
H       9.299400    2.016500   -6.307800
H       6.768300    1.270500   -8.805000
H       7.412900    2.248300  -10.147000
H       5.181400    1.288700  -10.651800
H       5.090700    3.060400  -10.668200
N      -3.926800   -8.818300   -3.004000
C      -5.231200   -8.753000   -3.676400
C      -6.081600   -7.528900   -3.290100
C      -2.978500   -9.620100   -3.796100
C      -2.167600   -8.750700   -4.773000
C      -4.029900   -9.302000   -1.621900
C      -2.807000   -8.943400   -0.752900
N      -5.508900   -6.290600   -3.773800
N      -1.258000   -7.880600   -4.058800
N      -2.654000   -7.514400   -0.573400
H      -5.804500   -9.689900   -3.484700
H      -5.077700   -8.708500   -4.778900
H      -7.084600   -7.620300   -3.766800
H      -6.253800   -7.489400   -2.190900
H      -3.514800  -10.428900   -4.344900
H      -2.257800  -10.143100   -3.129100
H      -1.547700   -9.394700   -5.437400
H      -2.845900   -8.163400   -5.433300
H      -4.191400  -10.405200   -1.617400
H      -4.926700   -8.858800   -1.134500
H      -1.870200   -9.318400   -1.221500
H      -2.898400   -9.447300    0.237300
N       5.172600    1.223000    8.760400
C       5.433600   -0.215000    8.896500
C       4.254000   -1.099200    8.442600
C       6.406100    2.020700    8.750700
C       7.156500    2.009300    7.406500
C       4.250100    1.713300    9.798600
C       3.280300    2.774700    9.250300
N       3.972500   -0.965000    7.028300
N       6.425100    2.700400    6.365800
N       2.347400    2.188100    8.312200
H       5.705500   -0.452900    9.951300
H       6.317300   -0.496500    8.281200
H       4.474500   -2.163400    8.691100
H       3.325500   -0.824500    8.990600
H       7.084400    1.680800    9.567800
H       6.161400    3.083400    8.978500
H       8.122500    2.551500    7.526800
H       7.410800    0.970600    7.096400
H       4.819800    2.115900   10.668200
H       3.641100    0.876000   10.206300
H       3.841200    3.615900    8.782200
H       2.677600    3.210100   10.079500
C      -7.297400    4.151400    0.219400
C       2.486400    2.480000    7.074900
C      -2.262800   -7.105900    0.572800
C      -1.005900    0.352500    3.084600
C      -1.991600    1.176100    2.539200
C      -2.944800    0.676800    1.644400
C      -2.871900   -0.680000    1.302100
C      -1.895500   -1.528000    1.841600
C      -0.966800   -0.997600    2.740300
C      -0.062500    0.901000    4.081800
C       0.919900    1.811600    3.710400
C       1.754600    2.308800    4.703300
C       1.595100    1.915700    6.036300
N       0.634400    1.035800    6.389800
C      -0.161800    0.539900    5.427500
C      -4.060700    1.549000    1.160000
C      -5.291300    1.008300    0.778700
C      -6.328600    1.867800    0.433400
C      -6.149200    3.253300    0.483200
N      -4.954500    3.779200    0.815900
C      -3.945800    2.947300    1.131700
C      -1.905000   -2.982000    1.524100
C      -2.260700   -3.446800    0.253800
C      -1.607700   -3.932800    2.499400
C      -1.707100   -5.279400    2.168800
C      -2.108300   -5.667500    0.885800
N      -2.372500   -4.747800   -0.063500
H       1.036000    2.127700    2.660400
H       2.541000    3.028800    4.438900
H      -0.941800   -0.173300    5.739200
H      -5.478500   -0.076800    0.788300
H      -7.311600    1.448400    0.164500
H      -2.993500    3.431100    1.398000
H      -2.471800   -2.724300   -0.548500
H      -1.332800   -3.637800    3.525400
H      -1.495000   -6.041500    2.935900
H      -8.269200    3.693600   -0.024700
H       3.285600    3.170400    6.758700
H      -2.040400   -7.837300    1.366300
C      -3.585900    8.537300    1.103100
C       6.222000    2.084900    5.263800
C       5.358100    5.250500   -6.620800
C       3.332500    4.517900    0.960300
C       2.104100    5.136900    1.219000
C       1.366200    5.753700    0.199100
C       1.889800    5.728500   -1.099200
C       3.109500    5.110500   -1.376000
C       3.826700    4.511200   -0.343800
C       4.104800    3.870200    2.048700
C       4.636100    2.593600    1.881800
C       5.330800    2.020700    2.940800
C       5.495500    2.719800    4.141200
N       4.998800    3.966000    4.292000
C       4.323500    4.518400    3.268300
C       0.070800    6.444400    0.482500
C      -0.223100    6.953300    1.748900
C      -1.429000    7.618400    1.943600
C      -2.328500    7.785700    0.886000
N      -2.053900    7.286600   -0.334400
C      -0.892700    6.633800   -0.518600
C       3.657100    5.121200   -2.748300
C       4.792100    5.875800   -3.051100
C       3.060100    4.381400   -3.763600
C       3.632300    4.426900   -5.029300
C       4.766100    5.211800   -5.266300
N       5.337000    5.931200   -4.277300
H       4.495400    2.039100    0.939100
H       5.748200    1.006500    2.833800
H       3.932000    5.537200    3.420700
H       0.484100    6.864500    2.588500
H      -1.662400    8.033500    2.937300
H      -0.722100    6.238800   -1.531500
H       5.274000    6.470300   -2.258200
H       2.166900    3.764600   -3.569200
H       3.190800    3.839900   -5.850500
H      -3.778400    8.938600    2.111000
H       4.892300    4.636000   -7.407000
C       3.634500   -2.022400    6.394600
C      -1.523800   -6.629900   -4.040200
C       7.464300    1.376600   -4.829300
C       1.836200   -2.893700   -1.320400
C       1.906100   -2.869700    0.071400
C       2.808800   -2.025600    0.722200
C       3.648800   -1.212400   -0.050500
C       3.611500   -1.229500   -1.451100
C       2.687100   -2.079400   -2.068700
C       0.924600   -3.830500   -2.010800
C      -0.171000   -3.363700   -2.727700
C      -0.969800   -4.297200   -3.376000
C      -0.665700   -5.661600   -3.320700
N       0.403700   -6.106400   -2.627600
C       1.166700   -5.206100   -1.984600
C       2.939600   -2.046200    2.204700
C       2.818400   -3.236300    2.920600
C       3.026500   -3.211000    4.294800
C       3.361100   -2.015500    4.940000
N       3.455000   -0.860900    4.250800
C       3.238100   -0.884900    2.924700
C       4.591800   -0.450100   -2.271200
C       4.334600   -0.117900   -3.610000
C       5.836200   -0.079000   -1.755800
C       6.750700    0.554600   -2.590100
C       6.437300    0.802000   -3.929700
N       5.225900    0.478100   -4.422100
H      -0.401600   -2.286500   -2.778200
H      -1.843200   -3.957300   -3.948900
H       2.597600   -4.191300    2.415800
H       2.954000   -4.148100    4.869900
H       3.310800    0.077100    2.396300
H       3.362700   -0.362400   -4.065500
H       6.132000   -0.315100   -0.721600
H       7.746500    0.819400   -2.198700
H       3.551100   -2.979200    6.934700
H       8.454800    1.607500   -4.405900
H      -5.616600   -5.479800   -1.879000
H      -1.509200    3.053500   -5.650500
H      -4.582100    0.891600   -3.573200
H      -1.404000   -1.277900   -5.520300
H      -2.038700    2.220600    2.884500
H      -3.627800   -1.108300    0.628600
H      -0.195200   -1.641100    3.192800
H       1.709800    5.113500    2.246400
H       1.367200    6.231400   -1.927400
H       4.798200    4.039400   -0.565500
H       1.241700   -3.531600    0.650100
H       4.388000   -0.580700    0.462400
H       2.656100   -2.172700   -3.165600
H       3.642100    0.273300   -9.631500
H      -2.411200   -6.247800   -4.571200
H       2.036900   -5.590900   -1.429000
H       6.601300    1.059300    5.127000
