260
Chem3D Core 22.201282423593D
N      -5.866700    8.390100   -1.835500
C      -7.246400    8.049000   -1.472100
C      -7.810800    6.813700   -2.219400
C      -5.724800    8.811400   -3.233500
C      -4.264100    8.814100   -3.748800
C      -5.223600    9.304300   -0.885200
C      -5.036200    8.714400    0.535000
N      -6.848600    5.796400   -2.595500
N      -3.381300    7.811400   -3.185600
N      -4.791400    7.287500    0.611300
K      -4.237000    5.669800   -1.602100
H      -7.290000    7.829300   -0.381900
H      -7.907200    8.930100   -1.644200
H      -8.350100    7.145600   -3.137100
H      -8.570400    6.325300   -1.565700
H      -6.308200    8.120100   -3.882000
H      -6.173500    9.823200   -3.366200
H      -3.809500    9.817300   -3.575400
H      -4.279900    8.661300   -4.853100
H      -4.215700    9.577100   -1.270000
H      -5.806800   10.252400   -0.825700
H      -5.930400    8.949500    1.158300
H      -4.171700    9.226800    1.017900
C      -7.168400    4.924500   -3.477800
C      -4.373600   -6.917600   -5.651900
C       3.740500    1.972800   -8.598300
C      -2.921700   -1.361900   -5.910400
C      -3.829500   -0.409300   -5.438700
C      -3.521200    0.953200   -5.467100
C      -2.287200    1.359700   -5.982100
C      -1.365800    0.424900   -6.461800
C      -1.693900   -0.933500   -6.422200
C      -3.265500   -2.805200   -5.875200
C      -3.161400   -3.603700   -7.015700
C      -3.522100   -4.948700   -6.939600
C      -3.968600   -5.494300   -5.729900
N      -4.038500   -4.706300   -4.645600
C      -3.712600   -3.405200   -4.694100
C      -4.492800    1.955600   -4.964900
C      -5.807000    1.988000   -5.434900
C      -6.679700    2.960400   -4.947700
C      -6.246900    3.881700   -3.986500
N      -4.982400    3.813900   -3.540700
C      -4.116300    2.899600   -4.004900
C      -0.061800    0.865800   -7.016700
C       1.137300    0.307200   -6.563400
C       0.006700    1.843600   -8.011000
C       1.251600    2.206700   -8.523400
C       2.419200    1.607600   -8.036000
N       2.324000    0.686300   -7.063800
H      -2.822800   -3.176100   -7.974900
H      -3.460200   -5.577500   -7.843500
H      -3.796200   -2.803200   -3.774600
H      -6.150400    1.269500   -6.198900
H      -7.713400    3.000300   -5.330200
H      -3.087900    2.893200   -3.608300
H       1.116400   -0.459300   -5.771600
H      -0.911300    2.308700   -8.409100
H       1.307700    2.963500   -9.323800
H      -8.190600    4.950300   -3.892500
N      -6.848100   -8.372900   -2.754800
C      -7.929200   -7.861100   -3.603900
C      -8.564900   -6.542600   -3.093300
C      -7.302800   -8.772500   -1.418500
C      -6.159800   -8.955800   -0.389300
C      -6.021200   -9.389000   -3.415000
C      -5.234000   -8.866800   -4.642900
N      -7.690300   -5.652700   -2.354700
N      -5.004800   -8.094500   -0.550400
N      -4.791000   -7.487600   -4.583400
K      -4.905300   -5.900400   -2.283100
H      -7.527800   -7.666200   -4.623400
H      -8.717000   -8.641700   -3.717500
H      -9.450000   -6.775600   -2.456800
H      -8.948600   -5.974900   -3.972700
H      -7.990700   -7.993000   -1.020900
H      -7.898500   -9.711900   -1.491900
H      -5.811200  -10.014700   -0.404200
H      -6.571400   -8.773400    0.630600
H      -5.279300   -9.783300   -2.684900
H      -6.658900  -10.252400   -3.715400
H      -4.327500   -9.502000   -4.776200
H      -5.848700   -8.997200   -5.563900
N       7.165900   -0.445900   -8.438100
C       6.815400    0.572000   -9.440600
C       6.107400    1.800400   -8.831100
C       7.188800   -1.801900   -9.008000
C       5.784800   -2.434700   -9.110000
C       8.408800   -0.120400   -7.722200
C       8.453600   -0.705500   -6.294600
N       4.845700    1.457300   -8.208700
N       5.158300   -2.597000   -7.814600
N       7.409300   -0.173400   -5.444200
K       4.711200   -0.409500   -6.133600
H       7.726800    0.886500  -10.000400
H       6.127000    0.133900  -10.198200
H       5.939900    2.563900   -9.625400
H       6.744200    2.279400   -8.053800
H       7.683200   -1.788200  -10.007200
H       7.809400   -2.470100   -8.369400
H       5.859700   -3.423500   -9.618500
H       5.110000   -1.803800   -9.730900
H       9.290200   -0.465600   -8.311200
H       8.514400    0.984300   -7.632400
H       8.333700   -1.811800   -6.316500
H       9.450000   -0.499100   -5.840300
N       3.769200   -1.177400    8.515400
C       5.135400   -1.683900    8.314400
C       5.794000   -1.147600    7.025600
C       2.933700   -2.113100    9.283800
C       2.352300   -3.252000    8.419800
C       3.754900    0.177900    9.087000
C       2.514200    0.994200    8.667000
N       5.088200   -1.558300    5.829800
N       1.477400   -2.760800    7.375800
N       2.451700    1.204300    7.235600
K       2.387000   -0.947700    5.453600
H       5.766000   -1.443600    9.201800
H       5.119200   -2.794900    8.242200
H       6.851300   -1.496500    6.976600
H       5.822900   -0.035000    7.029600
H       3.515200   -2.531100   10.138300
H       2.074800   -1.567600    9.736000
H       1.797000   -3.965400    9.071500
H       3.165900   -3.831600    7.928800
H       3.828200    0.124900   10.198200
H       4.653800    0.740800    8.748300
H       1.577300    0.475100    8.969800
H       2.521900    1.977300    9.191800
C      -2.117200    7.926600   -3.358000
C       2.450400    2.379200    6.727200
C       7.678400    0.445500   -4.356300
C       2.589500    3.342700    1.063300
C       1.676600    4.190000    0.430300
C       1.736900    4.410300   -0.948600
C       2.732200    3.773700   -1.694300
C       3.655600    2.921000   -1.082100
C       3.575300    2.713300    0.297400
C       2.526900    3.127900    2.530200
C       2.496200    4.206100    3.416500
C       2.466800    3.958800    4.788400
C       2.453700    2.644300    5.269500
N       2.461400    1.627500    4.392500
C       2.505300    1.837100    3.067400
C       0.767700    5.321900   -1.605400
C       1.198300    6.360500   -2.432900
C       0.252700    7.209600   -3.006800
C      -1.112200    7.012300   -2.767300
N      -1.496700    5.992700   -1.983400
C      -0.607600    5.170100   -1.405700
C       4.716000    2.265100   -1.887400
C       4.401200    1.571700   -3.060400
C       6.057800    2.331800   -1.507400
C       7.024000    1.731100   -2.313500
C       6.650600    1.058400   -3.482900
N       5.350300    0.990600   -3.810800
H       2.521400    5.244300    3.043100
H       2.464300    4.808300    5.491700
H       2.518300    0.965400    2.392800
H       2.273600    6.528800   -2.614400
H       0.590600    8.043500   -3.644600
H      -0.979200    4.353800   -0.764900
H       3.349800    1.492100   -3.381600
H       6.360400    2.875600   -0.596200
H       8.087000    1.800800   -2.027800
H      -1.747500    8.763800   -3.974700
H       2.468800    3.248900    7.405500
H       8.734300    0.549200   -4.054200
C      -4.888600    6.695300    1.743100
C       0.249000   -3.114400    7.304800
C      -8.201000   -4.723100   -1.636400
C      -3.415300   -0.958000    3.437300
C      -3.520400    0.430400    3.312100
C      -4.394800    1.004700    2.385500
C      -5.174600    0.169100    1.580700
C      -5.084100   -1.221100    1.687900
C      -4.202300   -1.774300    2.620400
C      -2.489200   -1.553700    4.432400
C      -2.932400   -2.505400    5.352700
C      -2.033900   -3.017300    6.288100
C      -0.700200   -2.591700    6.294300
N      -0.297400   -1.691700    5.382900
C      -1.144900   -1.171500    4.481000
C      -4.504600    2.479400    2.260800
C      -4.734500    3.286600    3.376400
C      -4.857400    4.665200    3.204900
C      -4.736400    5.233300    1.931000
N      -4.495200    4.433500    0.880500
C      -4.387800    3.102300    1.014500
C      -5.917600   -2.098200    0.829400
C      -5.335200   -3.108700    0.058700
C      -7.303700   -1.943300    0.766500
C      -8.048100   -2.803500   -0.039900
C      -7.410600   -3.799100   -0.789800
N      -6.074500   -3.911700   -0.722400
H      -3.985800   -2.833800    5.361700
H      -2.385700   -3.753500    7.030100
H      -0.762700   -0.430000    3.760500
H      -4.843900    2.843100    4.381000
H      -5.058900    5.303700    4.081300
H      -4.196600    2.492900    0.116200
H      -4.242100   -3.249500    0.080700
H      -7.811700   -1.165800    1.362500
H      -9.145200   -2.695700   -0.077900
H      -5.110700    7.305700    2.635100
H      -9.297800   -4.602000   -1.639900
C       5.663900   -2.235800    4.908700
C       4.808700   -3.747500   -7.375400
C      -3.927100   -8.372100    0.084200
C       2.666100   -4.572100   -2.106900
C       3.363200   -4.059400   -1.008900
C       2.887500   -4.239700    0.292600
C       1.696700   -4.945700    0.487500
C       0.982200   -5.463700   -0.595600
C       1.477700   -5.273600   -1.888700
C       3.192000   -4.389400   -3.482400
C       3.355800   -5.476900   -4.342400
C       3.880500   -5.263900   -5.616600
C       4.225200   -3.972400   -6.032200
N       4.035800   -2.943000   -5.191100
C       3.547000   -3.121700   -3.953800
C       3.641600   -3.709600    1.456000
C       5.005800   -3.964000    1.610000
C       5.666000   -3.476100    2.737100
C       4.971100   -2.729400    3.695700
N       3.664900   -2.480700    3.509200
C       3.001900   -2.950100    2.440600
C      -0.275200   -6.220900   -0.378300
C      -1.439600   -5.892900   -1.079300
C      -0.331700   -7.285400    0.523100
C      -1.527900   -7.985900    0.674300
C      -2.661500   -7.615300   -0.058400
N      -2.582000   -6.574600   -0.902400
H       3.099700   -6.499000   -4.014600
H       4.031300   -6.123700   -6.290600
H       5.555300   -4.567000    0.867000
H       6.738600   -3.694000    2.872900
H       1.927700   -2.723000    2.342300
H      -1.429100   -5.051500   -1.791300
H       0.562400   -7.590300    1.093300
H      -1.570200   -8.840300    1.370300
H       6.731700   -2.486900    5.025700
H      -3.933000   -9.234500    0.772700
H       3.762200    2.717500   -9.411800
H      -4.807300   -0.734800   -5.046900
H      -2.040800    2.433600   -6.020600
H      -0.979100   -1.677800   -6.809800
H       0.907000    4.702500    1.030700
H       2.797500    3.958900   -2.779000
H       4.309500    2.055400    0.790800
H      -2.913100    1.083000    3.960700
H      -5.879100    0.611200    0.857000
H      -4.133900   -2.870100    2.721100
H       4.309900   -3.518100   -1.170500
H       1.321800   -5.109400    1.511200
H       0.931600   -5.694800   -2.748700
H      -4.320700   -7.516300   -6.577400
H       4.966400   -4.629500   -8.019000
H       3.419700   -2.242100   -3.301800
H      -0.137800   -3.833700    8.046200
