262
Coordinates from ORCA-job trenMg
  N   -3.22213573421846      7.56593735710923      1.01757806398458
  C   -3.96391076557541      7.70618015232105      2.26789811482730
  C   -3.17027737443711      7.05088566820062      3.41481490716964
  C   -2.12230247851230      8.52468237516923      0.95464227310176
  C   -1.08069910292113      8.04899305168215     -0.07572103790502
  C   -4.10815171630525      7.70904271320155     -0.13461500738624
  C   -4.92859531794547      6.41758085658213     -0.31436937749708
  N   -2.14405130954919      6.23220499047626      2.86045286324097
  N   -1.32304732473756      6.67825938183939     -0.38059109483759
  N   -4.32302675590360      5.37633970887513      0.44741418347177
  Mg  -2.31501900770550      5.44257229845854      0.95255878929788
  H   -4.92846592386127      7.21529641549688      2.15539395445873
  H   -4.15957231735939      8.76162356410727      2.49777429832448
  H   -2.76486678331579      7.80952093800725      4.09769135597900
  H   -3.84141838678772      6.40980284685426      3.99520508902838
  H   -1.66622927426560      8.59118524807211      1.94042823654975
  H   -2.48318337463346      9.52778525424804      0.69222162837829
  H   -1.09970415476269      8.67841297587472     -0.97558403918195
  H   -0.08045210031364      8.12939113416300      0.36188387517299
  H   -3.49922411544717      7.88878759259487     -1.01830988218478
  H   -4.77859481295355      8.57045346771137     -0.01762279469285
  H   -5.97826649152477      6.57445019163216     -0.03167690102936
  H   -4.91088720718977      6.12401569217553     -1.36870090726957
  C   -0.95809095209153      6.30905201820688      3.28883803087850
  C   7.35653577246854     -2.53277580276127      4.15623436549345
  C   3.05039284684120      0.39784097118013     -6.61615619472452
  C   4.47737398209955      1.16752763866425      1.01167114693653
  C   3.65133418983249      2.12117262862816      1.60026043141223
  C   2.80952381117753      2.90568187306931      0.81502123611770
  C   2.79156040336382      2.72707355190437     -0.56641416394934
  C   3.60909508409043      1.77149859021955     -1.16384875919540
  C   4.45758723777256      1.00329076683315     -0.37005418389651
  C   5.31764507505447      0.28024498329821      1.83120651524341
  C   6.60265645187050     -0.08989095449021      1.43239232945037
  C   7.29907618531367     -1.01029018505370      2.19550712801907
  C   6.69950177883661     -1.53066411693680      3.34293927699610
  N   5.48686555765472     -1.14279320309630      3.75220618652243
  C   4.81950240218040     -0.27307892233789      3.01717688927322
  C   1.90213600584861      3.87059333242381      1.45586013353451
  C   2.30226495639366      4.64323058954731      2.54698801213071
  C   1.37462432568120      5.46958890918868      3.15620959280626
  C   0.07082226302908      5.50702413945272      2.66008161109025
  N   -0.30485785093227      4.79903723340609      1.58963537098108
  C   0.58063974678377      4.00859887985136      1.01209710282938
  C   3.52299671582524      1.51289440329907     -2.60907466116819
  C   3.57911618043013      0.19510287684892     -3.08032125436114
  C   3.33551377869343      2.52576265139279     -3.55014972734193
  C   3.18878654731445      2.18053007219411     -4.88300208271148
  C   3.23428044972524      0.83364420447017     -5.24603664849607
  N   3.44247609565775     -0.13548154077405     -4.34857058475195
  H   7.05478780395977      0.33740889596031      0.55047104230011
  H   8.29070868716158     -1.32526408079210      1.90902574826458
  H   3.82604054596725     -0.02952096895015      3.36355476080975
  H   3.31909394538777      4.61080915343662      2.90729366831224
  H   1.65026475648944      6.07423803445933      4.00652185630163
  H   0.21476284968244      3.42700395301716      0.17895811664773
  H   3.70852944429306     -0.63234190537335     -2.40033291216712
  H   3.31853583384251      3.56346281838681     -3.25441245343673
  H   3.03925934877354      2.94071825462107     -5.63424305742140
  H   -0.67127480494920      6.95158429869678      4.12457765126329
  N   6.74198579009289     -2.10423513737192      7.48970455095394
  C   7.85253609098783     -1.19548925353829      7.21773994758754
  C   7.29826013176622      0.15953392585286      6.73630194349644
  C   6.10300860813713     -1.77617092912955      8.76152707744447
  C   4.66970944374123     -2.34174524285306      8.78244426712542
  C   7.18340390669728     -3.49634888035751      7.46958665948963
  C   7.38065139478388     -3.95351760412066      6.01117177970913
  N   5.92918553512625     -0.00278828430107      6.37419546710032
  N   4.30163689757127     -2.72183332241195      7.45937547190434
  N   6.74101370480928     -3.01897404301333      5.14650516249292
  Mg  5.17141051735084     -1.84901381164483      5.80467148377838
  H   8.48148296462486     -1.63618686573708      6.44694345165809
  H   8.47856008708396     -1.05370514158215      8.10831114492790
  H   7.42965290502667      0.93432997605652      7.50354243603960
  H   7.85077076509596      0.47857114593036      5.84683217052060
  H   6.07631889596801     -0.69331512695901      8.86632646260044
  H   6.67844948425469     -2.17166362008191      9.60861534216657
  H   4.58765880424887     -3.18052910518790      9.48661650817201
  H   3.97993952921658     -1.56043617005282      9.11709151918922
  H   6.42093977138594     -4.10602181918650      7.95050963435448
  H   8.11417993281223     -3.62771500842905      8.03677215539000
  H   6.90493390166746     -4.92949533004551      5.87307081868295
  H   8.44715193222571     -4.06745532644811      5.77466990067675
  N   5.04163735954300     -2.53590486772870     -7.63947081672281
  C   4.46624722551702     -1.62198578735958     -8.61652228650377
  C   3.01776761186555     -1.30688666569199     -8.21272364767806
  C   6.43913493893897     -2.25335678170153     -7.34748299819648
  C   6.52063161916220     -1.24472172805271     -6.18919744510487
  C   4.79929931849776     -3.93537044625518     -7.96420932846641
  C   4.49654718981638     -4.70503194308469     -6.67047722182201
  N   3.07068030752518     -0.83999980963795     -6.86811399472699
  N   5.74505303907399     -1.79097273397952     -5.13118545401508
  N   3.44719683225984     -4.00131417960249     -6.01013869455663
  Mg  3.71256962257091     -2.07837107347610     -5.33141005068196
  H   4.49453371802270     -2.02506486502823     -9.63686868972106
  H   5.03426146037056     -0.68911581812590     -8.61320521726722
  H   2.60255888619807     -0.56784150851314     -8.90898966275157
  H   2.41983957536929     -2.21898550189770     -8.24336551129602
  H   6.98058735874396     -1.86431390901847     -8.21892187633870
  H   6.93363543986941     -3.17543675121168     -7.03418635626677
  H   7.57307705759351     -1.08999021288724     -5.92083599326385
  H   6.07183062028746     -0.29907044701524     -6.49737480982990
  H   5.64469073484753     -4.39691533350430     -8.48981630189478
  H   3.92692960142718     -4.00479736319378     -8.61762524955295
  H   5.37551195166416     -4.70031886820038     -6.02432658364845
  H   4.22608198923942     -5.73696285016501     -6.92524203242238
  N   -6.83072958250091     -7.53816721189663      1.93764787918164
  C   -7.22211664241791     -7.96717079108301      0.60194986138404
  C   -6.84602394651557     -6.86913833974742     -0.40494522553267
  C   -6.27390726577938     -8.61524174914916      2.74338883384837
  C   -4.75735477342718     -8.68663910804420      2.50701746702039
  C   -7.87566880935579     -6.79296334028095      2.62559205608192
  C   -7.23269029226996     -5.63889291145392      3.40959786408681
  N   -5.46609832880978     -6.58023816334565     -0.19165938696230
  N   -4.24603152746360     -7.37931136827803      2.75059301842443
  N   -6.42818651664314     -4.91501983695478      2.48156493817769
  Mg  -4.79280228614611     -5.77523389513715      1.57741563271014
  H   -8.29310291615432     -8.19524543924313      0.53047802251758
  H   -6.67263684323986     -8.87460355995276      0.34191449360689
  H   -7.05646845150805     -7.22777923062194     -1.41973877312566
  H   -7.42596640240107     -5.96759364389769     -0.20326156022831
  H   -6.73488987826330     -9.58665463915251      2.52363784447637
  H   -6.44668632508092     -8.39785851569128      3.79965647973402
  H   -4.32669508660686     -9.44632034504549      3.17081862238153
  H   -4.55954913783502     -8.95023406517232      1.46696702902873
  H   -8.46798436298322     -7.42444474024807      3.29990565572487
  H   -8.55719704788604     -6.36774209367107      1.88560252854840
  H   -6.58589394077441     -6.03893146267532      4.19167631626581
  H   -8.02470561176094     -5.02699215020501      3.85803120095589
  C   -1.36265076777354      6.28390735540134     -1.58014239060714
  C   -6.88820011172371     -3.89577107110481      1.89340714613504
  C   2.24197968291722     -4.34704866580391     -6.16683256251120
  C   -3.38735633429473     -1.28315487736564     -1.68755267972724
  C   -3.26436170387532      0.10246241311903     -1.60897154284845
  C   -2.30024228043375      0.77032589369064     -2.35903478350054
  C   -1.45849223799383      0.04313651934182     -3.19667316932107
  C   -1.57211349634706     -1.34199332807802     -3.28282827432963
  C   -2.53867302605201     -2.00092421769676     -2.52664582935094
  C   -4.37963671987286     -1.97265603984050     -0.84743211615667
  C   -5.64553668907677     -1.42928965698006     -0.62178579101079
  C   -6.50082537820913     -2.06604257972675      0.25964704854650
  C   -6.07532079823071     -3.23552973676741      0.89107268872913
  N   -4.88442589986100     -3.78835480650805      0.63435231533280
  C   -4.06684281286543     -3.17687740402870     -0.20281641429865
  C   -2.13044962297127      2.22682522757056     -2.23710656477872
  C   -1.84139792998561      3.02654522797116     -3.34378763692142
  C   -1.60588530635961      4.37595725913276     -3.14924568915873
  C   -1.66602556152470      4.89484602263818     -1.85517397594388
  N   -1.98784770896851      4.14044112603316     -0.79888402270739
  C   -2.20989319495357      2.85256202246947     -0.98627151214884
  C   -0.64785177829491     -2.11223203092478     -4.12979946205707
  C   0.71231140520175     -1.78087217903419     -4.18476966006598
  C   -1.07575267827166     -3.21324130486482     -4.87279697282254
  C   -0.14045206606121     -3.94744231501423     -5.58092670576264
  C   1.19964764462087     -3.56118445020069     -5.53565441623865
  N   1.60367157968674     -2.47597495562335     -4.86528877354028
  H   -5.96168395067616     -0.53085306490502     -1.12932396011453
  H   -7.48068201276592     -1.66284999626529      0.46458770059101
  H   -3.10275221209573     -3.64562052545153     -0.33850510185457
  H   -1.81233168509117      2.60860973869229     -4.33841570583253
  H   -1.37204843471303      5.02008283419429     -3.98288420378265
  H   -2.42521102057173      2.28036906140814     -0.09607786004127
  H   1.10286371999523     -0.94565444174572     -3.62214392355477
  H   -2.11855972240938     -3.48916864236223     -4.90556081602256
  H   -0.43866925453684     -4.81241626658115     -6.15324296502352
  H   -1.16405735991493      6.94504339756670     -2.42699418482569
  H   -7.86610687601373     -3.46837208695807      2.12730763863584
  H   1.94875572907070     -5.23773337142853     -6.72767057171961
  C   -5.01933940952338      4.65590447611294      1.21698472492272
  C   -3.72991499621576     -7.08823858917247      3.86637247008704
  C   5.05139917191613      0.79802961756995      6.80344892563963
  C   -1.98612778156594     -1.75006091571287      4.50654821607625
  C   -2.73481894991109     -0.70462775573930      3.97174878056590
  C   -2.24661840545685      0.59939165128426      3.99740434564850
  C   -1.00242448341130      0.85521098043325      4.56791280409862
  C   -0.24482950167468     -0.18267472377566      5.10465646806617
  C   -0.74240756511136     -1.48293374293909      5.07325706383519
  C   -2.47832303284863     -3.13475314278458      4.43313227031826
  C   -2.28450564824359     -4.04103019536888      5.47672322435253
  C   -2.70456727042629     -5.34929200942838      5.31350918821316
  C   -3.31709346357377     -5.72123767339547      4.11587876538984
  N   -3.53743168652541     -4.84551269544413      3.12890822282595
  C   -3.12825549249350     -3.60013575621852      3.28253134513903
  C   -3.02247831982362      1.68367097600909      3.37506611178615
  C   -4.41252168950400      1.74806788102806      3.48194865609251
  C   -5.09020449288781      2.73891493723324      2.79389855889547
  C   -4.36371331983375      3.64349900037448      2.01843855871516
  N   -3.02840604636526      3.61554583956484      1.95488132951634
  C   -2.38390859495038      2.66711078538870      2.60870840574383
  C   1.09387277813047      0.09271957177635      5.64983721869903
  C   2.15944608747272     -0.77925918692471      5.39217005586361
  C   1.36396213588344      1.24084131844130      6.39595319559679
  C   2.66375795292309      1.48221425426057      6.80456927320004
  C   3.66256214965476      0.57000530694054      6.46177267985040
  N   3.39906224231316     -0.55244325899295      5.78465577077787
  H   -1.82604938705060     -3.73083616622405      6.40318584095580
  H   -2.56081928441822     -6.07532109934572      6.09893677796603
  H   -3.29301463381109     -2.94677117845904      2.43805181937330
  H   -4.95498552475008      1.04711051146875      4.09757724929914
  H   -6.16565956957240      2.80990761745402      2.84803071399898
  H   -1.31069625767218      2.66335591983016      2.48833480130744
  H   2.01096054396625     -1.67806500599475      4.81201239760000
  H   0.57571738404707      1.92800194878962      6.66258281976309
  H   2.90657790322263      2.36541153241020      7.37523676516955
  H   -6.10484374906096      4.75177978148192      1.29590271992561
  H   5.29463767486200      1.67002916929467      7.41501582293844
  C   -4.57821994423280     -7.16282543961492     -0.87653502980831
  C   6.28441346028324     -2.38148478811227     -4.15623677383754
  C   3.79787968238882     -3.85825348446145      7.23524756183353
  C   2.93585783855497     -5.07791151059657     -0.48092813937895
  C   1.67484633001217     -5.60763054803694     -0.72689641336431
  C   0.78079859845981     -5.83898349471104      0.31482646918083
  C   1.18193457234396     -5.58302092576767      1.62280339791652
  C   2.44848304560939     -5.06874579002157      1.88376377193980
  C   3.31082213489791     -4.78670109125721      0.82375107248763
  C   3.81873867710888     -4.76026059145074     -1.66776366443843
  C   5.27187470451826     -4.59238099032910     -1.34809411395151
  C   6.02292089427106     -3.75384563004200     -2.06916538751476
  C   5.42003846442980     -3.02409231350407     -3.17195398875282
  N   4.15247283602894     -2.91286897861520     -3.34084193213574
  C   3.28377364280473     -3.47243023284312     -2.33432628433500
  C   -0.58258135054450     -6.30166861000109      0.01933707833347
  C   -0.84489297403324     -7.21594263485794     -1.00251657959467
  C   -2.15905190111780     -7.52597726719555     -1.30309572099234
  C   -3.18258434325231     -6.93085818218084     -0.56434217701559
  N   -2.93255771368703     -6.09834859423044      0.45253080585374
  C   -1.67880336577406     -5.78987292062135      0.72636951894949
  C   2.84758050414614     -4.82219070770598      3.27870245770151
  C   3.54592749311791     -3.66907543680168      3.66023602456639
  C   2.50806731323863     -5.73340587439227      4.28116157768871
  C   2.83134124797697     -5.43926571249435      5.59258938390979
  C   3.48948100074936     -4.24144948739324      5.87392601471114
  N   3.85706852236215     -3.38643114671012      4.91329039940549
  H   5.70819117028503     -5.22437021278631     -0.58980120464369
  H   7.08371521850354     -3.65350793183683     -1.90214344921471
  H   -0.04056448105195     -7.68303716313958     -1.54967194981805
  H   -2.39334491027802     -8.21555651367758     -2.09952896551393
  H   -1.53673991927178     -5.07361891732722      1.52289044525399
  H   3.83506633221252     -2.92848982552819      2.92881182972033
  H   2.01260233533200     -6.66131148351531      4.04031878833825
  H   2.57613584048718     -6.12022897530218      6.38986477746942
  H   -4.81555132209737     -7.82269252428925     -1.71433001315964
  H   3.57057126541831     -4.57055849958915      8.03201030538678
  H   2.89330465428863      1.15679012781386     -7.38591167170853
  H   3.66478180432684      2.25334606086965      2.66995634185645
  H   2.13990577438169      3.33182735901294     -1.17583696569175
  H   5.10357813410156      0.27180376201877     -0.82783796219704
  H   -3.92195252840626      0.66367804929402     -0.96500327268808
  H   -0.71474190755318      0.55579378764068     -3.78472052451610
  H   -2.63190744614993     -3.07288441353201     -2.59336581805366
  H   -3.70066514421142     -0.90608735529490      3.53764058613671
  H   -0.62483715489328      1.86440221327359      4.59590706021726
  H   -0.16124492171431     -2.28743661570569      5.49355061302222
  H   1.37664404928807     -5.81880851315121     -1.74140255086073
  H   0.50880695606621     -5.79052316371544      2.43853540111547
  H   4.28500105289805     -4.37326741319717      1.02885029769433
  H   8.36754426535786     -2.84010431001341      3.87862832568819
  H   7.36660559609886     -2.42974696912725     -4.01473488348719
  H   3.14402055682430     -2.70611708681544     -1.55805935310835
  H   -3.56402842655516     -7.82896582588325      4.65207337558624
  H   3.74974493103800     -5.60029949871737     -2.37587059512533
  H   2.31929415964646     -3.66045872507818     -2.80154099669336
