264
Chem3D Core 22.201282423593D
N       6.357900    7.878600    8.175700
C       6.402400    6.848800    9.311800
C       5.364700    5.717100    9.062100
C       7.677100    8.210200    7.466800
C       7.972600    7.167400    6.350700
C       5.301900    8.987400    8.264300
C       4.452400    9.035700    6.962000
N       5.431700    5.068400    7.743500
N       6.885300    6.937700    5.386800
N       3.858500    7.758100    6.538700
Na      4.839600    5.850400    5.630500
H       6.221400    7.403800   10.260800
H       7.436300    6.434900    9.330600
H       5.480000    4.953700    9.865200
H       4.333100    6.124200    9.168900
H       8.467900    8.244400    8.250800
H       7.560800    9.228300    7.030400
H       8.894800    7.484000    5.811800
H       8.208000    6.180900    6.812100
H       5.845700    9.938900    8.464800
H       4.659000    8.750300    9.142500
H       3.651800    9.799100    7.094800
H       5.083000    9.393900    6.116100
C       5.778100    3.829700    7.709900
C       3.440400   -6.342100    0.992700
C       8.211200    3.735100   -4.460800
C       5.459100   -0.958800    1.319000
C       5.447300   -0.305100    2.556800
C       5.898400    1.012800    2.688800
C       6.372000    1.676800    1.551000
C       6.396700    1.050800    0.299800
C       5.938400   -0.268300    0.200500
C       4.972600   -2.363000    1.196400
C       5.625900   -3.298600    0.386400
C       5.136700   -4.604100    0.310800
C       3.998000   -4.970000    1.033900
N       3.383600   -4.055200    1.790100
C       3.836100   -2.794100    1.892200
C       5.877700    1.696100    4.013900
C       6.224000    1.024600    5.192000
C       6.197000    1.710200    6.408100
C       5.819200    3.055100    6.447400
N       5.479800    3.670900    5.310800
C       5.506200    3.041900    4.123800
C       6.902300    1.772300   -0.903100
C       6.266000    1.637400   -2.143500
C       8.023100    2.608000   -0.841200
C       8.463300    3.255700   -1.997100
C       7.783500    3.075300   -3.204900
N       6.707700    2.282900   -3.235900
H       6.536500   -3.026400   -0.175000
H       5.659500   -5.345300   -0.317000
H       3.284300   -2.084100    2.529000
H       6.541500   -0.032200    5.171100
H       6.483100    1.185000    7.334900
H       5.212000    3.602000    3.221700
H       5.371200    1.000400   -2.231200
H       8.578900    2.743900    0.102800
H       9.354800    3.903800   -1.951400
H       6.055500    3.306100    8.642400
N       1.338300   -8.273800    3.958300
C       2.179700   -8.149400    5.234900
C       3.098600   -6.896400    5.161500
C      -0.181700   -8.400100    4.120000
C      -0.832000   -6.994800    4.269600
C       1.982700   -8.962100    2.748400
C       1.892500   -8.050000    1.491300
N       2.426900   -5.629600    4.832900
N      -0.479800   -6.013900    3.231400
N       2.393100   -6.677100    1.660600
Na      1.508600   -4.868000    2.831900
H       2.748800   -9.101000    5.343200
H       1.464400   -8.061200    6.084300
H       3.635000   -6.798900    6.133100
H       3.885900   -7.053700    4.388800
H      -0.361500   -9.058800    5.000300
H      -0.561100   -8.911700    3.206200
H      -1.938000   -7.123800    4.308100
H      -0.539100   -6.548400    5.247500
H       1.463800   -9.938900    2.615500
H       3.046400   -9.154900    3.016600
H       0.830900   -7.967700    1.163200
H       2.435500   -8.550000    0.656900
N       7.692600    2.360500   -8.306100
C       8.663800    3.474300   -7.895600
C       8.061500    4.323400   -6.739600
C       8.229000    0.923600   -8.326900
C       8.161000    0.296200   -6.905000
C       6.583500    2.718200   -9.303500
C       5.191400    2.316400   -8.737000
N       7.585000    3.566200   -5.571900
N       6.854200    0.374200   -6.234000
N       4.883300    2.813000   -7.387000
Na      5.725200    2.188700   -5.306600
H       8.876700    4.073500   -8.810500
H       9.604300    2.976300   -7.566700
H       8.824100    5.070100   -6.420200
H       7.194000    4.910900   -7.118600
H       9.265300    0.969300   -8.733400
H       7.590200    0.351700   -9.038000
H       8.486500   -0.767000   -6.975900
H       8.896700    0.800300   -6.237200
H       6.828700    2.203800  -10.260800
H       6.637900    3.818900   -9.464100
H       5.108500    1.205900   -8.698600
H       4.410200    2.659500   -9.453400
N      -8.010000    5.433900   -1.387900
C      -7.786700    5.981500   -2.803200
C      -6.276000    6.262000   -3.046500
C      -8.780400    4.114600   -1.251000
C      -7.823300    2.903000   -1.440600
C      -8.134800    6.450100   -0.245600
C      -7.127100    6.117300    0.891800
N      -5.363200    5.147300   -2.749300
N      -6.611700    2.909000   -0.606300
N      -5.727100    5.943900    0.474800
Na     -4.694700    4.228100   -0.715800
H      -8.420200    6.892600   -2.903100
H      -8.159900    5.206400   -3.510700
H      -6.146400    6.584800   -4.104900
H      -5.948700    7.122700   -2.419100
H      -9.604300    4.139900   -2.000500
H      -9.225100    4.106200   -0.229800
H      -8.402200    1.968500   -1.259600
H      -7.484200    2.855400   -2.500900
H      -9.195900    6.429800    0.093200
H      -7.916800    7.452000   -0.680900
H      -7.431900    5.172500    1.398000
H      -7.195100    6.917000    1.664400
C       7.090100    7.293200    4.167400
C      -4.872600    6.809100    0.894900
C       3.927900    3.667200   -7.274000
C       0.702200    6.218700   -0.421100
C       1.722300    6.474200    0.501900
C       3.069800    6.294800    0.167200
C       3.387300    5.853800   -1.122100
C       2.389900    5.589400   -2.068200
C       1.052500    5.778400   -1.703100
C      -0.728300    6.412700   -0.048800
C      -1.143700    7.498600    0.730300
C      -2.496300    7.641600    1.046000
C      -3.426100    6.701800    0.592400
N      -3.003200    5.666100   -0.138800
C      -1.710500    5.506600   -0.468300
C       4.143600    6.570300    1.164300
C       5.340500    7.197300    0.800300
C       6.313000    7.441300    1.772200
C       6.093600    7.054100    3.097100
N       4.948200    6.444700    3.417600
C       3.988800    6.205900    2.507800
C       2.746800    5.118200   -3.437100
C       3.773400    4.185800   -3.632400
C       2.074100    5.583600   -4.572600
C       2.450300    5.118600   -5.834300
C       3.486700    4.189100   -5.959400
N       4.104800    3.749300   -4.859100
H      -0.421400    8.257000    1.078900
H      -2.825800    8.504800    1.648500
H      -1.422400    4.630200   -1.070800
H       5.517500    7.523900   -0.239100
H       7.250800    7.947700    1.488100
H       3.067200    5.696500    2.832200
H       4.317500    3.783400   -2.762900
H       1.266400    6.331300   -4.487900
H       1.929400    5.495600   -6.730500
H       8.034800    7.792600    3.886600
H      -5.206900    7.667200    1.505300
H       3.403800    4.035100   -8.174400
C       2.575700    7.663900    6.565100
C      -6.502500    1.988600    0.285900
C       2.401900   -4.719500    5.741800
C      -1.751300    1.671600    3.524200
C      -1.162100    2.857100    3.980000
C       0.008900    2.840800    4.745600
C       0.589500    1.605600    5.057200
C       0.025100    0.403500    4.616600
C      -1.146800    0.453300    3.852300
C      -2.998300    1.708000    2.707600
C      -4.027100    0.778200    2.896300
C      -5.179600    0.858300    2.112100
C      -5.299700    1.856300    1.141100
N      -4.298000    2.724400    0.970400
C      -3.181400    2.680200    1.716200
C       0.625200    4.112200    5.222000
C      -0.154200    5.176700    5.688400
C       0.470100    6.344200    6.131900
C       1.863300    6.449700    6.102300
N       2.585600    5.424700    5.639800
C       2.015200    4.284300    5.216400
C       0.656700   -0.903900    4.955300
C       0.722200   -1.937200    4.012000
C       1.206600   -1.148600    6.218600
C       1.779900   -2.392300    6.490500
C       1.810000   -3.382100    5.504100
N       1.290400   -3.120000    4.301000
H      -3.951400   -0.003100    3.672400
H      -5.996300    0.134000    2.270100
H      -2.388600    3.421400    1.526100
H      -1.254300    5.098100    5.733600
H      -0.143500    7.178200    6.512300
H       2.663600    3.475500    4.842800
H       0.314100   -1.779500    3.000800
H       1.172500   -0.381200    7.011400
H       2.201300   -2.590000    7.490600
H       1.965500    8.505600    6.939200
H       2.833000   -4.919900    6.739100
C      -4.729100    4.621500   -3.737600
C       6.235200   -0.731800   -6.012600
C      -1.420000   -5.617800    2.447600
C       1.208500   -0.701400   -3.203400
C       0.289500    0.320100   -3.470900
C      -0.934700    0.393300   -2.797200
C      -1.233800   -0.584800   -1.841200
C      -0.336300   -1.618400   -1.551200
C       0.880300   -1.664000   -2.242300
C       2.509200   -0.762900   -3.929600
C       3.050800   -1.977500   -4.365000
C       4.268300   -1.982600   -5.048500
C       4.943500   -0.782600   -5.288500
N       4.412800    0.363400   -4.851100
C       3.238000    0.402300   -4.200200
C      -1.902300    1.488800   -3.092100
C      -2.126000    1.939400   -4.398000
C      -3.048500    2.962600   -4.624300
C      -3.737000    3.536800   -3.552100
N      -3.496300    3.098600   -2.312600
C      -2.623000    2.108500   -2.063400
C      -0.668800   -2.651400   -0.528800
C       0.305400   -3.124400    0.359500
C      -1.957700   -3.184500   -0.415400
C      -2.217800   -4.156200    0.552900
C      -1.198600   -4.586700    1.406800
N       0.020900   -4.053000    1.288000
H       2.518000   -2.929600   -4.197400
H       4.688600   -2.938600   -5.403800
H      -1.601700    1.481300   -5.254600
H      -3.235000    3.308500   -5.655000
H      -2.464700    1.793100   -1.019700
H       1.328800   -2.719300    0.312900
H      -2.766200   -2.865800   -1.096000
H      -3.230400   -4.586500    0.633400
H      -4.913500    4.977800   -4.767100
H      -2.434500   -6.046000    2.538200
H       9.098600    4.392000   -4.418800
H       5.084700   -0.839600    3.449100
H       6.742400    2.710300    1.640800
H       5.963200   -0.779000   -0.775100
H       1.456500    6.833100    1.508900
H       4.445500    5.722000   -1.398100
H       0.261800    5.584900   -2.445100
H      -1.632900    3.823600    3.740700
H       1.504500    1.575500    5.669700
H      -1.610400   -0.485100    3.508600
H       0.527700    1.078200   -4.233700
H      -2.198800   -0.548100   -1.311300
H       1.591900   -2.478500   -2.034500
H       3.955200   -7.086300    0.358700
H       6.665000   -1.687400   -6.363100
H       2.853300    1.377500   -3.861000
H      -7.320000    1.260200    0.434000
H       5.921600    7.295700    7.444300
H       1.387300   -7.295100    3.634600
H      -7.057300    5.087500   -1.194700
H       7.127200    2.311000   -7.444100
