264
Chem3D Core 22.201282423583D
N       6.223300    8.211400    8.422900
C       6.858500    7.151300    9.333600
C       6.117000    5.790300    9.245900
C       7.201800    9.064900    7.603900
C       7.639400    8.353000    6.295600
C       5.009600    8.952100    9.001500
C       3.862200    9.086300    7.964500
N       6.051300    5.166200    7.918300
N       6.568100    7.991700    5.358500
N       3.323500    7.833300    7.420300
K       4.586400    6.024800    5.678900
H       6.859200    7.575500   10.364100
H       7.916400    7.037100    9.003400
H       6.595200    5.089900    9.968000
H       5.066400    5.915600    9.594400
H       8.060400    9.297800    8.275100
H       6.675700   10.018200    7.367900
H       8.385200    9.002100    5.782700
H       8.178000    7.410900    6.546700
H       5.381000    9.938800    9.362700
H       4.666500    8.364900    9.883900
H       3.042000    9.677100    8.432400
H       4.213800    9.689000    7.096200
C       6.650500    4.035400    7.770200
C       4.063400   -6.465300    1.693500
C       8.826000    3.223900   -4.415500
C       6.156400   -1.100600    1.685700
C       6.180700   -0.374100    2.880500
C       6.650600    0.942300    2.912800
C       7.106600    1.529200    1.728200
C       7.091500    0.821800    0.522300
C       6.617100   -0.493700    0.513400
C       5.646300   -2.495400    1.664600
C       6.432500   -3.550500    1.198800
C       5.912500   -4.845300    1.213500
C       4.611700   -5.085500    1.674000
N       3.872800   -4.047800    2.095000
C       4.354100   -2.792600    2.108600
C       6.664400    1.708800    4.185000
C       7.339700    1.236500    5.311600
C       7.335200    2.001300    6.478700
C       6.648700    3.221200    6.528500
N       5.990800    3.638100    5.436000
C       5.992800    2.930500    4.292800
C       7.569700    1.456700   -0.732400
C       6.736200    1.549600   -1.851300
C       8.857900    1.984100   -0.835600
C       9.264600    2.556900   -2.041400
C       8.388200    2.618800   -3.132100
N       7.149100    2.122900   -2.995200
H       7.462000   -3.372400    0.841400
H       6.541000   -5.680200    0.860400
H       3.705700   -1.976400    2.466900
H       7.890500    0.280000    5.279900
H       7.883100    1.634500    7.363000
H       5.438000    3.319700    3.423500
H       5.708400    1.155700   -1.792500
H       9.558800    1.932800    0.016000
H      10.288500    2.958400   -2.126400
H       7.214800    3.618100    8.623700
N       1.091800   -8.301100    4.111500
C       1.344100   -8.147900    5.617900
C       2.172400   -6.875600    5.942000
C      -0.335600   -8.695700    3.707600
C      -1.280100   -7.465900    3.635100
C       2.222100   -8.956600    3.305800
C       2.501100   -8.203300    1.977300
N       1.594700   -5.594000    5.517300
N      -0.896600   -6.401700    2.698800
N       2.883300   -6.790400    2.095100
K       1.275400   -4.629400    2.897100
H       1.845100   -9.084900    5.954200
H       0.344300   -8.093100    6.106600
H       2.362100   -6.857900    7.039400
H       3.174500   -6.951400    5.461500
H      -0.676600   -9.457600    4.445900
H      -0.262500   -9.186200    2.709800
H      -2.303600   -7.831100    3.391300
H      -1.356900   -6.995700    4.642000
H       1.924100  -10.018200    3.144100
H       3.127500   -8.944000    3.954800
H       1.593800   -8.238100    1.332000
H       3.289700   -8.761700    1.423300
N       7.587700    2.570300   -8.426300
C       8.903900    3.165000   -7.906500
C       8.690800    4.018500   -6.627300
C       7.640400    1.096800   -8.853500
C       7.477000    0.135300   -7.645800
C       6.736900    3.494200   -9.308900
C       5.232900    3.438000   -8.928600
N       8.098500    3.329900   -5.473400
N       6.237300    0.265700   -6.869800
N       4.893700    3.806600   -7.548200
K       5.466700    2.385000   -5.192500
H       9.342800    3.751000   -8.746700
H       9.580300    2.306600   -7.690000
H       9.672200    4.459600   -6.339600
H       8.026800    4.881600   -6.862100
H       8.607300    0.954700   -9.389200
H       6.812400    0.944700   -9.583400
H       7.578900   -0.908900   -8.020100
H       8.319700    0.286300   -6.933100
H       6.925700    3.189600  -10.364100
H       7.132900    4.526000   -9.168100
H       4.846500    2.405700   -9.089900
H       4.672800    4.086700   -9.639900
N      -8.465000    5.712300   -1.353900
C      -8.501600    5.695300   -2.888500
C      -7.084400    5.840200   -3.505200
C      -9.332300    4.658700   -0.650800
C      -8.612200    3.287200   -0.549200
C      -8.434300    7.100600   -0.699400
C      -7.402600    7.174600    0.458100
N      -6.101900    4.814200   -3.133200
N      -7.332100    3.272900    0.170300
N      -6.006200    6.884200    0.108400
K      -4.890800    4.412400   -0.629200
H      -9.192200    6.512600   -3.199900
H      -8.955700    4.722900   -3.187600
H      -7.192300    5.874100   -4.613300
H      -6.649500    6.822900   -3.211900
H     -10.288500    4.601700   -1.220100
H      -9.555700    5.054300    0.366400
H      -9.315800    2.562200   -0.080300
H      -8.410000    2.896200   -1.572400
H      -9.474500    7.317600   -0.363500
H      -8.168500    7.827200   -1.501000
H      -7.689500    6.455600    1.259100
H      -7.472800    8.186400    0.918500
C       6.579200    8.563800    4.204400
C      -5.154800    7.841300    0.245300
C       4.159900    4.852500   -7.382500
C       0.495800    7.364000   -0.756200
C       1.443300    7.645900    0.232600
C       2.810900    7.492900   -0.016400
C       3.226000    7.057000   -1.278300
C       2.296000    6.769200   -2.282200
C       0.933800    6.929200   -2.011200
C      -0.954900    7.521200   -0.479500
C      -1.485300    8.737600   -0.047000
C      -2.857600    8.838100    0.185000
C      -3.694200    7.729500    0.003000
N      -3.151500    6.567900   -0.392400
C      -1.835500    6.447000   -0.640200
C       3.805800    7.787700    1.046300
C       4.827300    8.718100    0.848600
C       5.728200    8.970600    1.883900
C       5.622300    8.288800    3.102700
N       4.642900    7.384400    3.254900
C       3.750400    7.133800    2.281100
C       2.750900    6.298500   -3.615600
C       3.543300    5.153000   -3.739000
C       2.401200    6.976300   -4.784500
C       2.866600    6.502300   -6.011600
C       3.661800    5.351100   -6.075700
N       3.963000    4.709000   -4.936700
H      -0.835400    9.619500    0.091500
H      -3.277600    9.804700    0.510800
H      -1.441500    5.470300   -0.965300
H       4.914300    9.266700   -0.105700
H       6.524900    9.718200    1.731700
H       2.963600    6.382500    2.458900
H       3.821300    4.589100   -2.833700
H       1.781500    7.889300   -4.743900
H       2.602800    7.048500   -6.933000
H       7.356000    9.321200    3.994900
H      -5.518600    8.832600    0.570800
H       3.863700    5.438900   -8.271000
C       2.091400    7.561400    7.680300
C      -7.274000    2.576000    1.252200
C       1.281100   -4.755100    6.443400
C      -2.544800    1.917700    4.471300
C      -1.891500    3.050600    4.967100
C      -0.722400    2.933300    5.724700
C      -0.210800    1.659100    5.989900
C      -0.847000    0.512700    5.504300
C      -2.015400    0.653800    4.748800
C      -3.781400    2.057700    3.660500
C      -4.970700    1.429300    4.033100
C      -6.109100    1.604400    3.245500
C      -6.059300    2.387200    2.085200
N      -4.896000    2.960600    1.741300
C      -3.788100    2.823700    2.490600
C      -0.031100    4.142900    6.239600
C      -0.691300    5.069300    7.048400
C       0.006800    6.182000    7.519200
C       1.349700    6.379300    7.173100
N       1.950700    5.482500    6.376500
C       1.307800    4.392400    5.922800
C      -0.291100   -0.836000    5.783900
C       0.036700   -1.706400    4.739800
C      -0.073200   -1.276500    7.090400
C       0.437000   -2.558100    7.300600
C       0.743600   -3.389800    6.216100
N       0.543500   -2.929900    4.971600
H      -5.022100    0.816900    4.950600
H      -7.052400    1.120500    3.550400
H      -2.858600    3.318100    2.164000
H      -1.747400    4.918500    7.333200
H      -0.511800    6.904600    8.171600
H       1.849100    3.685600    5.272800
H      -0.110200   -1.378400    3.697800
H      -0.319100   -0.631400    7.952000
H       0.593200   -2.910800    8.334000
H       1.521100    8.251100    8.328400
H       1.417500   -5.053900    7.498400
C      -5.653800    4.060200   -4.076800
C       5.437900   -0.744500   -6.864900
C      -1.693300   -6.170900    1.713100
C       0.508000   -1.003800   -3.900100
C      -0.465900   -0.021300   -4.105000
C      -1.661700   -0.031300   -3.380800
C      -1.879400   -1.047100   -2.444500
C      -0.919700   -2.039500   -2.223100
C       0.269100   -2.009800   -2.959000
C       1.777500   -0.975800   -4.670700
C       2.182100   -2.063600   -5.446000
C       3.376200   -1.982000   -6.163400
C       4.170600   -0.830400   -6.095900
N       3.765800    0.190300   -5.324800
C       2.611500    0.146100   -4.637000
C      -2.686300    1.021500   -3.599300
C      -3.229900    1.256600   -4.863200
C      -4.200900    2.247400   -5.013400
C      -4.616200    3.010400   -3.914600
N      -4.059400    2.775600   -2.716800
C      -3.134900    1.815800   -2.539300
C      -1.156200   -3.109300   -1.220300
C      -0.260600   -3.314200   -0.166300
C      -2.276700   -3.938700   -1.291900
C      -2.445800   -4.939000   -0.334000
C      -1.513400   -5.101800    0.698400
N      -0.458000   -4.275000    0.753100
H       1.558900   -2.972700   -5.512000
H       3.686200   -2.836200   -6.788600
H      -2.914900    0.655000   -5.733900
H      -4.641300    2.420700   -6.009800
H      -2.711200    1.662500   -1.533300
H       0.624400   -2.663400   -0.076300
H      -3.013100   -3.823500   -2.106600
H      -3.323200   -5.604200   -0.401500
H      -6.058200    4.189800   -5.096900
H      -2.590100   -6.805700    1.595800
H       9.860900    3.610100   -4.442200
H       5.832100   -0.848200    3.812900
H       7.491600    2.562300    1.745700
H       6.613600   -1.064600   -0.429900
H       1.106400    8.001900    1.220300
H       4.303100    6.946800   -1.486300
H       0.195200    6.717200   -2.801900
H      -2.308600    4.051100    4.765200
H       0.703300    1.555300    6.597800
H      -2.532000   -0.244800    4.372700
H      -0.292700    0.768600   -4.854600
H      -2.824900   -1.071400   -1.877800
H       1.026400   -2.795600   -2.801400
H       4.737300   -7.260900    1.327600
H       5.698000   -1.629900   -7.472700
H       2.324400    1.013400   -4.020200
H      -8.189000    2.067300    1.605600
H       5.786000    7.627200    7.689700
H       1.140900   -7.320100    3.787000
H      -7.510100    5.365000   -1.160300
H       7.021000    2.520800   -7.562400
