49
crest_best.xyz from n=10 qcg run for K, but two flown away MeCN removed (Input for step 2)
K      5.70126    1.43657    0.83325
C      5.64441    4.58748   -0.16641
C      4.43109    4.24892    0.51260
N      3.40505    4.03681    1.06139
H      6.38435    3.63243   -0.25823
H      6.19657    5.37410    0.36760
H      5.44816    4.94743   -1.18648
C      5.03699   -8.50405   -0.01213
C      5.40136   -7.16056   -0.19011
N      5.70302   -6.05365   -0.33632
H      5.90798   -9.16022   -0.06258
H      4.33295   -8.82862   -0.78070
H      4.56167   -8.65921    0.95828
C      6.89784    0.69914   -2.17899
C      5.83325    1.66943   -2.06649
N      5.04741    2.46806   -2.68535
H      7.90720    1.18755   -2.62540
H      6.59346   -0.10744   -2.86466
H      7.12405    0.25306   -1.16979
C      8.86798    1.95046    1.68138
C      7.93894    3.05255    1.81607
N      7.67401    4.21651    2.28115
H      9.18799    1.50566    2.75487
H      9.78917    2.27532    1.17368
H      8.39481    1.12913    1.07343
C      2.74061    1.11836   -0.47288
C      3.28916    0.01581    0.29858
N      3.13013   -1.19656    0.68479
H      3.51388    2.05155   -0.50692
H      1.79274    1.46727   -0.03170
H      2.54204    0.80317   -1.51032
C      4.81301    2.48251    3.36484
C      4.87868    1.10056    3.73314
N      4.94123   -0.03020    4.06205
H      5.83641    2.84900    3.02955
H      4.46917    3.12075    4.19686
H      4.09501    2.61346    2.49182
C      6.19236   -1.35613    1.51552
C      7.41913   -1.06434    0.84055
N      8.43129   -0.81355    0.28823
H      5.31713   -1.17348    0.81695
H      6.06809   -0.66360    2.40488
H      6.14625   -2.39799    1.87530
C      8.18419   -4.11716   -3.95572
C      7.63696   -2.83988   -3.75936
N      7.19043   -1.78587   -3.59960
H      7.40451   -4.85349   -4.16106
H      8.73331   -4.45218   -3.07310
H      8.87689   -4.12393   -4.79977

