260
Coordinates from ORCA-job trenNa
  N   -5.70838639137328      8.00048190867241     -1.72989738130635
  C   -6.97800187483087      7.77348288902487     -1.06048408801203
  C   -7.71987781107147      6.53873273828047     -1.58554583588818
  C   -5.89288146708936      8.28581025225843     -3.14286631501608
  C   -4.57496200583647      8.30383833644223     -3.92651085061809
  C   -4.93660141425334      9.04124858154285     -1.07179364029815
  C   -4.53102677108240      8.67254577161226      0.36051944745310
  N   -6.80382762733509      5.49490158415980     -1.91435583721426
  N   -3.67516599072967      7.31467185931489     -3.42880711693079
  N   -4.23910090291777      7.27975218677188      0.46387218535197
  Na  -4.46945778112126      5.97522154795038     -1.56718207955899
  H   -6.76294585882385      7.61178982277234     -0.00711056476406
  H   -7.64697952367301      8.64775720799057     -1.14576170218280
  H   -8.36871206286221      6.79578207612534     -2.43660074699791
  H   -8.37680155449931      6.18305988204995     -0.78339726942091
  H   -6.51499166463012      7.49441403995980     -3.55352600105433
  H   -6.40957056740930      9.24873342495312     -3.30149054931897
  H   -4.12274922590792      9.30739023593648     -3.92348782502163
  H   -4.80853408400357      8.06520311007916     -4.97059367703536
  H   -4.02735894760372      9.18373858712768     -1.65069032563515
  H   -5.48356814404040     10.00008629231547     -1.04603406959858
  H   -5.29865963512508      8.98406152556953      1.08537511496083
  H   -3.62190747529295      9.23553582324303      0.60125755014517
  C   -7.10987923374580      4.64455397706809     -2.79235300438069
  C   -4.02603003951923     -6.91799047535770     -5.11984456566246
  C   3.70005482924131      2.20988641074358     -7.84050087819637
  C   -2.63402078580981     -1.43476481313972     -5.13306059200869
  C   -3.59291037508861     -0.56671276523461     -4.61650345078423
  C   -3.36793523488584      0.80546883663323     -4.60161982063805
  C   -2.16931327216156      1.30883577339796     -5.10053988190246
  C   -1.20573093079399      0.45267911133271     -5.62412169284103
  C   -1.44470127966918     -0.91974111655426     -5.63702374674021
  C   -2.90225423642830     -2.87928526271117     -5.16080441190708
  C   -2.63142143126197     -3.65665358795958     -6.28613595165467
  C   -2.97800869738377     -4.99500454720035     -6.27573845079439
  C   -3.57620958935486     -5.53345518454169     -5.13211480147351
  N   -3.79148576084676     -4.80183147279896     -4.04030842024442
  C   -3.47146543970801     -3.52778960289181     -4.05805014384751
  C   -4.39235268817739      1.73010929758144     -4.09608579802823
  C   -5.73555244984475      1.59264931904217     -4.44423018119517
  C   -6.64269915896650      2.53804533670611     -4.00372436638295
  C   -6.19072346095563      3.59437979488859     -3.20640355935915
  N   -4.91624223256479      3.69888465598011     -2.83420756759465
  C   -4.05426446270166      2.80666515565645     -3.26718166725054
  C   0.04474070630760      0.98289399506628     -6.18405385705545
  C   1.27005419503310      0.34115911430708     -5.96034816947709
  C   0.06517587961160      2.13060752936848     -6.97596657166091
  C   1.26548426710554      2.55642241264075     -7.51440585142576
  C   2.42532051481349      1.82128274812272     -7.25281223960279
  N   2.41072070878150      0.74019009297401     -6.47375306347302
  H   -2.19122219993533     -3.21298015063880     -7.16710481435156
  H   -2.79949396678038     -5.61418617912300     -7.14177302219181
  H   -3.67150338886157     -2.98937148527218     -3.14302044151707
  H   -6.05811517857359      0.78029640278179     -5.07875021401821
  H   -7.68426361690948      2.46792733029957     -4.27849641067902
  H   -3.03688210361415      2.94769800899975     -2.93220542508127
  H   1.33210284492128     -0.53034163159677     -5.32463244835034
  H   -0.84815855983634      2.66575744832823     -7.19024188844920
  H   1.30468622224149      3.43520196095261     -8.14008106134994
  H   -8.08129519453964      4.65442968501318     -3.30793760404979
  N   -6.64101629395333     -7.95971937095767     -2.59308138998256
  C   -7.52853387677197     -7.60115279066664     -3.68646476812853
  C   -8.25088186921972     -6.26789424053218     -3.45935721433324
  C   -7.37539891725116     -8.17361810301550     -1.35746738256315
  C   -6.46151477112474     -8.33580530436488     -0.13716374779183
  C   -5.81567413542209     -9.10749578679518     -2.92965111007087
  C   -4.86209998368850     -8.83653837054756     -4.09931435506209
  N   -7.40025867797103     -5.33708853661362     -2.79118490213722
  N   -5.32269955667794     -7.48156052943798     -0.23696994944361
  N   -4.37321583490900     -7.49674168548075     -4.05592304998653
  Na  -5.18630179155555     -6.12028985339363     -2.22868298001062
  H   -6.91648388025428     -7.50115266194420     -4.57957144719576
  H   -8.28521335908153     -8.38364239606740     -3.87179677203414
  H   -9.19856973513129     -6.41462793747217     -2.91955510190643
  H   -8.50833810426162     -5.86014724139493     -4.44373398559618
  H   -7.99655132757572     -7.29604091621488     -1.19540869241339
  H   -8.03512083260655     -9.05671653527931     -1.42210960309125
  H   -6.17195342119675     -9.38779852193117      0.00707674394273
  H   -7.03843110261491     -8.04289984263380      0.74768907509919
  H   -5.21312153649001     -9.33946552062979     -2.05483022033320
  H   -6.42778425529193     -9.99371541695371     -3.17303312277221
  H   -4.01059974043611     -9.51899399776146     -3.99560847319754
  H   -5.33787856735796     -9.06751865421809     -5.06468342517676
  N   6.80056191258003     -0.43306541056231     -8.09869893742349
  C   6.56549327578433      0.70203295771114     -8.97412910773231
  C   5.98408619987903      1.90110550206263     -8.21842793702791
  C   6.69864437068261     -1.69700317772055     -8.80732997609068
  C   5.24475644441091     -2.15392704453683     -8.96262603831018
  C   8.05602861340071     -0.31331140062878     -7.37818508334273
  C   8.01593685852377     -1.03387514103233     -6.02671645389971
  N   4.74331643429380      1.53821439531234     -7.62788330642023
  N   4.65695479271738     -2.32262117662610     -7.67962228726220
  N   6.99756640902486     -0.46679338560181     -5.21327501767965
  Na  4.92244863633895     -0.41296338353940     -6.32781710131306
  H   7.48741890721668      1.01895045468574     -9.48753713052809
  H   5.84397008163726      0.41064234408552     -9.73798214389543
  H   5.89596360295698      2.75396566660371     -8.91231306522998
  H   6.66059062983341      2.17865468956408     -7.40716447242265
  H   7.16276878348530     -1.64375521241758     -9.80521841701711
  H   7.22659903833417     -2.46140169259619     -8.23635205683316
  H   5.22103660683020     -3.07435708533130     -9.56986665329337
  H   4.67651760442419     -1.37851318030936     -9.48092734254719
  H   8.90187416959158     -0.70586735325373     -7.96495717529365
  H   8.24823439941601      0.74241580765897     -7.18439186060840
  H   7.75871743155780     -2.08338575216255     -6.18455481032775
  H   9.01505523808945     -0.97954367585084     -5.56257135582291
  N   3.51842695918392     -1.12867087120092      8.21087697125769
  C   4.93211033663073     -1.40956707034934      8.03005579843956
  C   5.50451226031232     -0.71046755082908      6.79259287270815
  C   2.82901650712332     -2.21627865237100      8.88308547828864
  C   2.44217129142531     -3.33818541836026      7.91380524776005
  C   3.29645570738385      0.14731532891824      8.86853905975918
  C   1.95963848908401      0.77765359038242      8.46529330824014
  N   4.81325072027362     -1.15399912425427      5.63289260102113
  N   1.57461584006237     -2.82553948211321      6.91157834924966
  N   1.94148715991955      1.00308123442577      7.06217263521728
  Na  2.48434434433577     -0.93714866361640      5.85796121265513
  H   5.52306300348445     -1.11280227083274      8.91132161572081
  H   5.05960238780154     -2.48370463179365      7.89161567051216
  H   6.59004826443468     -0.89975769897230      6.74380592691821
  H   5.33999915642542      0.36591581059422      6.87673348052539
  H   3.43691976706279     -2.64381627325945      9.69632883464910
  H   1.91036277467580     -1.82859491897545      9.32443610022734
  H   1.99363497383713     -4.16741036155461      8.48623675547922
  H   3.33929583336931     -3.70456436600180      7.41030770873178
  H   3.32754078608198      0.05169673014306      9.96580049253143
  H   4.08925500290448      0.83502764288139      8.57267503770451
  H   1.14972537561668      0.08120261614413      8.69247176097308
  H   1.80711741645491      1.70029435744573      9.05010107203178
  C   -2.43125795206851      7.48318485103049     -3.53742670304587
  C   1.68902838561942      2.14195946023493      6.58893086851221
  C   7.25550706955702     -0.02667743022100     -4.06235333293058
  C   1.94008303381651      2.91916170223569      0.98483015741665
  C   1.06636170145798      3.73659734156855      0.27505469041209
  C   1.22079110864586      3.91671584453800     -1.09700140867364
  C   2.25380263516353      3.26473999934937     -1.76168835195608
  C   3.13086477486385      2.43692081975069     -1.06450842213158
  C   2.96812212495158      2.26836376898365      0.30680631715545
  C   1.80813888703195      2.76250824631190      2.43961368706806
  C   1.50599152015096      3.84392884872928      3.26717564917866
  C   1.44691857249281      3.65049876736451      4.63503631527083
  C   1.69577585545185      2.37553155523686      5.15141986605524
  N   1.95499261918591      1.33587226635918      4.35919204176681
  C   2.00626898646162      1.52209942109045      3.06044055460372
  C   0.30904124883521      4.81635490886906     -1.81739608609228
  C   0.77789162464096      5.74792823847660     -2.74279137665828
  C   -0.11953953576313      6.62000928201154     -3.33042067001286
  C   -1.47378790812334      6.53121868381324     -2.99314273223395
  N   -1.92769223816575      5.61225714190520     -2.14278715065337
  C   -1.07004758825561      4.79449550683276     -1.57563354871284
  C   4.22932802905424      1.77007759079729     -1.77665612628731
  C   4.03251122209571      1.19857776811408     -3.04060904760948
  C   5.51315914732210      1.69136448234181     -1.23769114889849
  C   6.51664300132785      1.08806961482388     -1.97326638400636
  C   6.21646930118673      0.57683705431004     -3.23920452199091
  N   4.98395589754847      0.62839672014389     -3.74333533099268
  H   1.34861259736515      4.82752806533576      2.84974832172294
  H   1.22687778915016      4.47503138184604      5.29610599395899
  H   2.20363327028975      0.63398317228385      2.47753612351302
  H   1.83184700600482      5.81319408901067     -2.97017446360591
  H   0.22087814907662      7.36562346770872     -4.03292789788549
  H   -1.50146681142089      4.07518682793334     -0.89462487500737
  H   3.05404367813752      1.19068866513185     -3.49914528476775
  H   5.72963003376290      2.11994963237172     -0.27025534087438
  H   7.52085914075447      1.02533412111340     -1.58228003745588
  H   -1.99674563325936      8.36306842074200     -4.03420689594179
  H   1.45633242895915      3.00997163660731      7.22281854456079
  H   8.26234218561206     -0.07045301393022     -3.62224121457214
  C   -4.39600801385907      6.68313225309915      1.56253795335652
  C   0.44989346224467     -3.34772897532405      6.69432119068083
  C   -7.90039012659232     -4.41453239510330     -2.09368879617983
  C   -2.99008983822917     -0.98943814438354      2.86303289318508
  C   -3.03003149294496      0.40266976145936      2.82740739655793
  C   -3.86144874958663      1.06312210511276      1.92932534875585
  C   -4.66352372793176      0.32234863887482      1.06452742397200
  C   -4.63684717253464     -1.06770730914147      1.09366302711464
  C   -3.79269341402757     -1.71768210608492      1.99064212498017
  C   -2.12254328773337     -1.67239679944974      3.83238154296844
  C   -2.55116507795606     -2.79767638805188      4.53601944181042
  C   -1.70767848260671     -3.36995139411534      5.47038959933524
  C   -0.44803211128224     -2.80297756282386      5.68510478736844
  N   -0.02644405271310     -1.74634601916055      4.99109921791834
  C   -0.82905410695900     -1.20661465974302      4.10311438076211
  C   -3.92350546185536      2.53115467503510      1.89790489409997
  C   -3.99021414304947      3.28968735899707      3.06595935111569
  C   -4.12564759589100      4.66201977776582      2.96777533651384
  C   -4.17269760067770      5.25130953825638      1.70041955081100
  N   -4.05995826748988      4.53155043374871      0.58557890634598
  C   -3.94576186579635      3.22637026517879      0.68263788825830
  C   -5.50951374246074     -1.85652939492110      0.21270633371316
  C   -5.03478372158191     -2.99614009829039     -0.44819428978215
  C   -6.85031999924965     -1.52391651825790      0.02294927122961
  C   -7.64268973999475     -2.34751749646689     -0.75480574537292
  C   -7.07346826594994     -3.48260873235838     -1.34076199964181
  N   -5.78198132921886     -3.77474550669767     -1.19748872495644
  H   -3.53998745871762     -3.20131572071912      4.37560964162024
  H   -2.02192993413895     -4.23380823705489      6.03634200813313
  H   -0.41871474102736     -0.36395871781701      3.56529303564229
  H   -3.97475478404309      2.81025682895345      4.03365766930733
  H   -4.20242027799999      5.27034752801096      3.85623103296137
  H   -3.86082212567668      2.70037376904277     -0.25715331333731
  H   -3.99760595351971     -3.28850095470226     -0.37165865157664
  H   -7.27407546622756     -0.65577769924035      0.50611525690521
  H   -8.68895197937480     -2.12476222789137     -0.89954157636254
  H   -4.72619750052043      7.20305272799209      2.47369134881908
  H   -8.98643045668523     -4.27202400220758     -1.99591959365731
  C   5.43327770857591     -1.63642417954288      4.64920565650381
  C   4.09797762715587     -3.40362903707411     -7.35740960804215
  C   -4.24894539241922     -7.79493818600499      0.34320975587721
  C   2.08051341831407     -4.01063174821367     -2.10138198427627
  C   2.85604820919884     -3.47903795503649     -1.07345173974522
  C   2.46341511561911     -3.61609295315377      0.25386907921461
  C   1.28196008360083     -4.29111569264390      0.55193703086494
  C   0.49684281193639     -4.82312498067594     -0.46500405481108
  C   0.89888935670026     -4.67570997919131     -1.79018823775560
  C   2.53232274737482     -3.88944049968154     -3.49396080631762
  C   2.42234513263976     -4.94788322029141     -4.39561225484761
  C   2.91737548540532     -4.79534980377610     -5.67764500207691
  C   3.51784594358627     -3.58417187592131     -6.03376358754567
  N   3.59351370076833     -2.56150897735613     -5.18276597367915
  C   3.11856508801502     -2.70820128578296     -3.96754726043704
  C   3.29097374792562     -3.07734356684726      1.34143564052355
  C   4.68075987171814     -3.19185000375086      1.33480680285225
  C   5.40187207514874     -2.70438827808444      2.40937261413074
  C   4.71597101697953     -2.11530423711579      3.47545794092938
  N   3.39018129892490     -1.98129655380018      3.46950446392694
  C   2.70907752584460     -2.43978191173277      2.44498545554581
  C   -0.73401240772091     -5.56459584821622     -0.15704297942138
  C   -1.90199446234308     -5.37233394734411     -0.90508495822738
  C   -0.78344202017236     -6.50958879551081      0.86707390635832
  C   -1.94537657690747     -7.23440028495982      1.05601393810223
  C   -3.04246909361170     -6.98896196497628      0.22416243306828
  N   -3.01154755777203     -6.05141479943335     -0.72124037563789
  H   1.98322245289834     -5.88601085098626     -4.08985721954979
  H   2.85567292122094     -5.60452199017723     -6.38944032360444
  H   5.18729716429061     -3.67878113528851      0.51449766706006
  H   6.47756992922687     -2.79191208516368      2.43273167101948
  H   1.64134804878755     -2.28169509032990      2.49550284056926
  H   -1.94178851981969     -4.62798470208879     -1.68712154243044
  H   0.08488259965383     -6.70052423700564      1.48040447399263
  H   -2.00216027963969     -7.98768255083352      1.82716787461163
  H   6.52888772905109     -1.72664558893938      4.62363389089782
  H   -4.15482893737687     -8.70203504081675      0.95786367972130
  H   3.69188555539829      3.10931922065174     -8.47319108561168
  H   -4.52166869289488     -0.96342565860059     -4.23664733941044
  H   -1.99564931252808      2.37377592739754     -5.09204213282613
  H   -0.70444194811297     -1.58640350428142     -6.05147880386848
  H   0.26898747575265      4.24898108416502      0.79053626250190
  H   2.38506486658567      3.40862272925373     -2.82299284314724
  H   3.65100351045010      1.63713014329584      0.85387006083611
  H   -2.41809370335641      0.97203429471444      3.50970022032237
  H   -5.31894813084970      0.83410638576703      0.37689972771157
  H   -3.77377004707814     -2.79614863420800      2.01574213738455
  H   3.77551469475813     -2.96652618152047     -1.31040204696959
  H   0.98093965231192     -4.41066818827204      1.58107096793465
  H   0.29268147546893     -5.09463158827831     -2.57828329984715
  H   -4.05649688283506     -7.41694243048896     -6.09948523837572
  H   4.02061028830367     -4.25916664284265     -8.04401601039396
  H   3.19505721575582     -1.83464971312297     -3.33618164012595
  H   0.08657401935704     -4.22634022323458      7.24704944243394
