264
Coordinates from ORCA-job trenHNa
  N   6.21272855938385      7.68318395025559      7.98266912820554
  C   6.86527710069416      6.74193009034704      8.93397467257062
  C   6.05591820636464      5.45237870888595      9.08564456604583
  C   7.20160263856828      8.55984907013892      7.29728009002088
  C   7.86417171067821      7.84368340345414      6.11897885991768
  C   5.12663292369992      8.46818077921531      8.63158156424476
  C   4.04376047519748      8.86173773066779      7.62483972803001
  N   5.94741037163727      4.80753526932425      7.80789227615979
  N   6.86130028313046      7.46846713732877      5.16326829898980
  N   3.47967974500532      7.67586695996233      7.04579653583061
  Na  4.75583716871425      5.76674726280884      5.51563918492071
  H   6.98849301946056      7.23410401031771      9.90087851228800
  H   7.85378706203819      6.48473598166076      8.54979082734327
  H   6.53971260718785      4.82089897624967      9.84498633660502
  H   5.03995151804853      5.67351680117370      9.42781706894341
  H   7.95321358321243      8.88649591187322      8.01889004893586
  H   6.68284816156790      9.44119858831550      6.91626170986472
  H   8.63448970825520      8.50428370822659      5.69496184887164
  H   8.35487881081221      6.92422417098200      6.45332140839212
  H   5.55450209885920      9.35620635658248      9.10143713709401
  H   4.66828485358450      7.85427011458882      9.40869822616155
  H   3.29738760090261      9.48578382890639      8.13751633274680
  H   4.47308994112117      9.45069809738027      6.80826957609137
  C   6.16553496653607      3.56720404124419      7.71368195695522
  C   3.91091313731092     -6.38554992002285      1.01867722359869
  C   8.60340364834690      3.55733923957219     -4.27593544761743
  C   5.61517487269779     -0.99336306736570      1.29462504381519
  C   5.58165631375145     -0.38539741315191      2.54691833415672
  C   6.02783812609731      0.92258440378959      2.70870380060837
  C   6.50333365873147      1.62697281898682      1.60560965917173
  C   6.54100718260449      1.02886790732716      0.34991383687086
  C   6.09192018319105     -0.28053117648738      0.19908634286163
  C   5.18178767353810     -2.39040438056524      1.14651086039138
  C   5.92003316537893     -3.30742406971984      0.39892386649153
  C   5.49325932917398     -4.62104491416298      0.33771165293765
  C   4.33604205093370     -4.99376106327978      1.02722412665107
  N   3.61083656037055     -4.10982609654293      1.71520701349031
  C   4.02063208461542     -2.86045120647089      1.77008199315061
  C   6.03268123186164      1.55127876546862      4.03783378138005
  C   6.47370114162790      0.86282085060356      5.16756679904791
  C   6.50063210926241      1.51841738889749      6.38434687383328
  C   6.08793089433787      2.85224462404045      6.44857793623998
  N   5.63792357944995      3.50267541277457      5.37382878641455
  C   5.61347971978430      2.87423013660408      4.21768698809753
  C   7.08341658008643      1.75224865558734     -0.80906604334537
  C   6.45377969372875      1.69715549317225     -2.05758303739685
  C   8.25762817102043      2.49889114756192     -0.71888040442225
  C   8.75149605451684      3.11151245240239     -1.85558248183722
  C   8.06202226209210      2.96428601560485     -3.06247313295049
  N   6.92040439820639      2.27790529763908     -3.14234457088923
  H   6.82847855519529     -3.00717304163651     -0.10139752237383
  H   6.05670516058500     -5.35290420070879     -0.22022659128051
  H   3.38775087319196     -2.18702406155171      2.33184735572155
  H   6.81816082839998     -0.15763495651522      5.09206397769757
  H   6.85319269359694      1.01222649705643      7.26971550028441
  H   5.23011833466059      3.44696858714792      3.38417322009543
  H   5.52125636417236      1.16299040147669     -2.17929446986307
  H   8.79263528759891      2.57432841142551      0.21591042904567
  H   9.66717182661979      3.68098498562821     -1.81537268720693
  H   6.44781287716474      2.95927133028158      8.58108234228903
  N   1.39796791134700     -7.97897376745353      3.86805642092095
  C   1.66293947267741     -7.94365260587340      5.33271709121295
  C   2.66691954052687     -6.84688526463962      5.69381980859862
  C   0.03263182169778     -8.48580764738668      3.55856295315692
  C   -1.01882614712244     -7.38333267945724      3.70137171568127
  C   2.45180010208786     -8.72502642741102      3.12651348629562
  C   2.60583394679780     -8.19881397680341      1.69800503781835
  N   2.13851599391591     -5.57109862412167      5.30269125636396
  N   -0.70554756693083     -6.30934219261361      2.80223826401742
  N   2.96686312894914     -6.81043645673326      1.74189842566617
  Na  1.52240692587650     -4.71723342632868      2.79741646172173
  H   2.02879741063637     -8.92033092346139      5.65628330584778
  H   0.72601348107827     -7.73646972380218      5.85253409496905
  H   2.88277363763105     -6.90949862293974      6.77040345314614
  H   3.60650810639939     -6.99069175410139      5.15121246353510
  H   -0.19883191110923     -9.32465510136587      4.21813569958412
  H   0.01836065565331     -8.84378386237602      2.52772127632742
  H   -2.01198741416307     -7.81933232279559      3.51988671893798
  H   -1.01072511543610     -6.97221355127664      4.71570943958495
  H   2.20437856187728     -9.78855382011426      3.11982777044200
  H   3.40307190241083     -8.59539876410624      3.64543843151669
  H   1.65770399765483     -8.27238470109125      1.15613880827448
  H   3.34654501781302     -8.81877680909520      1.17243289209921
  N   7.51790354622370      2.33141860127423     -8.05621136427394
  C   8.83880500903166      2.90552543407864     -7.67870324265291
  C   8.69467804932679      3.95437370267062     -6.57434284116666
  C   7.63714047109934      0.93245590227794     -8.55126267584440
  C   7.72702614749313     -0.06576318660545     -7.39532158371099
  C   6.78491958827413      3.20314330375203     -9.01510433153426
  C   5.27015161501191      3.04422233561204     -8.86937842712021
  N   8.10400757730102      3.34559503145106     -5.41646087080470
  N   6.53682457020289      0.01935309341528     -6.59761359285188
  N   4.88303946008058      3.39487498117301     -7.53262762633563
  Na  5.61518561782437      2.17011867460347     -5.19115186835118
  H   9.30891996171922      3.34115679060512     -8.56271781709186
  H   9.47750214521487      2.10146348713770     -7.30930960554652
  H   9.68343800224097      4.39122288325638     -6.37251151032012
  H   8.02815335278009      4.76134590388947     -6.89464183893498
  H   8.51508680877664      0.85271007002123     -9.19569689497867
  H   6.75164283640835      0.69436992970507     -9.14308218339209
  H   7.89291169699736     -1.07024401827547     -7.81129856662583
  H   8.57343403837364      0.17390613285183     -6.74399762357493
  H   7.09979581595222      2.96435945667809    -10.03303644178059
  H   7.04319706367090      4.24335801759459     -8.80937076421072
  H   4.97514730467327      2.00290801877918     -9.03199995036143
  H   4.77676124677004      3.66054434724561     -9.63495291117540
  N   -7.70556813567284      5.35977999650565     -1.33968578731064
  C   -7.85161039783574      5.38894384633830     -2.82106917019498
  C   -6.53146930145818      5.75155516203627     -3.50410160015249
  C   -8.65296261840726      4.40408781476463     -0.70283020313129
  C   -8.12744222372627      2.96872984395081     -0.76808965305203
  C   -7.80040384211961      6.72064780458190     -0.74317368628433
  C   -6.99294783145671      6.81850424586747      0.55267969903150
  N   -5.54008217617211      4.76913689472259     -3.16953269747976
  N   -6.87102159446518      2.89019493184602     -0.07873784525062
  N   -5.61447220491190      6.53297940345522      0.27279980514041
  Na  -4.52787999874447      4.17717206880639     -0.69117170761489
  H   -8.63319346106286      6.10159147232594     -3.09213633300204
  H   -8.15521393917597      4.39802390750082     -3.16307245656607
  H   -6.70602279329255      5.83343206725715     -4.58681948693605
  H   -6.16551357297457      6.71871939114798     -3.14555185526964
  H   -9.62531564239595      4.47955268172178     -1.19392881336486
  H   -8.77386969144107      4.67881260383642      0.34634133607444
  H   -8.88961971650341      2.29596626894803     -0.34870930063993
  H   -7.94872378669291      2.67128460296414     -1.80615671910342
  H   -8.84958854016061      6.96273154936425     -0.56183978534044
  H   -7.39756499112977      7.44353252133110     -1.45474450272212
  H   -7.33935843357620      6.07701345157728      1.27945676846535
  H   -7.14467569209573      7.81700323298064      0.98774316150431
  C   7.04881315054346      7.70433472177238      3.93684215571883
  C   -4.71312546862939      7.28741622504851      0.73445872496736
  C   3.90212661940557      4.16831741018791     -7.34722501331889
  C   0.75206936299233      6.43427336726663     -0.47553861962897
  C   1.77925708745194      6.67093248574340      0.43258096141808
  C   3.10744437139684      6.47754991626016      0.06189626218374
  C   3.40376469595533      6.03851220770473     -1.22475470135473
  C   2.38326892380769      5.80015057784718     -2.14160197851869
  C   1.05931624639962      5.99582998799594     -1.76077010477503
  C   -0.64823478937788      6.67535924396367     -0.09768517156035
  C   -1.02768822021740      7.82546145835671      0.59330335966432
  C   -2.36466062614091      8.02112577440804      0.88564256306180
  C   -3.29812462277209      7.06397399590804      0.47810556447163
  N   -2.93257825476951      5.94996133679356     -0.15924956915595
  C   -1.65855235202575      5.76768486435772     -0.43446917343495
  C   4.18323813138426      6.77203423004923      1.01964356748156
  C   5.32049222807840      7.48489205251390      0.64180112777525
  C   6.27574573863783      7.77888671695758      1.59704259971785
  C   6.07448056117090      7.35587791511354      2.91388003266635
  N   5.00174735036378      6.64624237393732      3.26956979702335
  C   4.09562078270458      6.36806101425107      2.35663494591533
  C   2.71166870008183      5.37652283201298     -3.51072503281974
  C   3.67684087547657      4.39321826948211     -3.75510911932236
  C   2.09019880477254      5.94981557318991     -4.61965577816066
  C   2.46925372880199      5.54339501396780     -5.88552610529387
  C   3.46388311910363      4.57062309868678     -6.01911364655338
  N   4.04029389173243      4.00233963705599     -4.95807642339248
  H   -0.29531838558638      8.56809166643840      0.87257892395798
  H   -2.68533202770591      8.91009327817078      1.40652051360328
  H   -1.41915547591824      4.84355780570584     -0.94263142960848
  H   5.44276091931161      7.82996903748435     -0.37389657417295
  H   7.15688562597034      8.34295094968533      1.33264286731811
  H   3.25337352815491      5.78224919689102      2.69895433703058
  H   4.17022239472342      3.89207616731777     -2.93352697900673
  H   1.34377334688449      6.72029874911972     -4.49679048051654
  H   2.01399638947898      5.98308184981336     -6.75952690699589
  H   7.95499094700750      8.20258745654758      3.57305516885818
  H   -4.94785325861574      8.16988472417754      1.34091224153450
  H   3.33286119704856      4.59573382206631     -8.18081022963903
  C   2.22530494957259      7.55705060780377      6.96004739780782
  C   -6.66315926882368      1.94849892918950      0.73664456013729
  C   2.17392796770768     -4.60446663989595      6.11459861624208
  C   -1.85247184521111      1.63081334627347      3.70596207524663
  C   -1.30468115930355      2.83343092251054      4.14501737991991
  C   -0.14314744692326      2.84099393659775      4.91072243165908
  C   0.47483321841695      1.63563697334116      5.23268995752503
  C   -0.06673325715615      0.42799392284326      4.80299114674012
  C   -1.22869045895011      0.43148155943426      4.03555684468402
  C   -3.09934792854092      1.63789773345615      2.92666490564137
  C   -4.14078102553620      0.75435918766823      3.20764972255888
  C   -5.30990168568291      0.84160899134050      2.47488793503570
  C   -5.41666498258813      1.81267587308305      1.47522716888614
  N   -4.40866040543264      2.63739194872684      1.18421539941955
  C   -3.29750254531771      2.55014335929906      1.88404168987635
  C   0.41859326221530      4.10578295582127      5.40713879417669
  C   -0.38977323873464      5.09096468811813      5.97287239904478
  C   0.20038526569647      6.23821841451674      6.46979866725714
  C   1.58885675524025      6.37843530605485      6.39132328700147
  N   2.35960455534785      5.45090977708731      5.81988325664957
  C   1.79329841891836      4.36014560593703      5.34935254825573
  C   0.56305299546739     -0.84635295367038      5.17861389340133
  C   0.71700500224322     -1.88245178108818      4.25077508463206
  C   1.01722746069336     -1.07964736931828      6.47634929689844
  C   1.56542358299190     -2.31093668109059      6.78414879928511
  C   1.64554779368352     -3.28845333240067      5.78837147069440
  N   1.23552995769424     -3.05706923084102      4.53976262330126
  H   -4.05083108434948      0.03101050487527      4.00411508379266
  H   -6.13619726203603      0.18005722900935      2.68454387609801
  H   -2.51158323833212      3.23604567914199      1.59835345358181
  H   -1.45756422937650      4.95080319671275      6.05020786070021
  H   -0.40177740408076      7.00801830079947      6.92721353722826
  H   2.46433379460394      3.64795468053565      4.88881715110941
  H   0.41272562467916     -1.74797136130870      3.22171784688996
  H   0.91832460172863     -0.32255195640355      7.23978746733582
  H   1.91150249774201     -2.51990770914346      7.78463721386285
  H   1.54144904282075      8.33074646740225      7.32787879897196
  H   2.58975552667882     -4.70794378570508      7.12357610168455
  C   -4.82588004019398      4.26628821664420     -4.08147940957289
  C   5.93906780098009     -1.03866486437653     -6.25371470538883
  C   -1.61290741511369     -5.81452835517111      2.07644931686524
  C   1.10625888684443     -0.87741546575398     -3.30767137441159
  C   0.21705716089855      0.15064690769242     -3.60992147417350
  C   -1.00795339859613      0.23894130094227     -2.95609033955356
  C   -1.34097230928398     -0.70740488774642     -1.99059076202416
  C   -0.46036848857946     -1.73957421791675     -1.68212479475605
  C   0.76425321749057     -1.81735108216506     -2.34031323849703
  C   2.38225084628063     -0.97794260534217     -4.03108287296835
  C   2.85159154043367     -2.19780084286951     -4.51722610986563
  C   4.03298960152651     -2.22373672557890     -5.23486354989765
  C   4.72385674357503     -1.02844288866984     -5.45325426390071
  N   4.29297280084206      0.13414305918270     -4.95959579111552
  C   3.16740564004984      0.15404312098165     -4.27792356595773
  C   -1.95993297452496      1.30645019627982     -3.29681386063093
  C   -2.22835255348867      1.64844816328451     -4.62162114195030
  C   -3.16186094426188      2.63398795245008     -4.88356475691083
  C   -3.80986968543443      3.25930705686661     -3.81472465281574
  N   -3.53437062061446      2.95116018083342     -2.54583544859105
  C   -2.64591498638457      2.01142583456911     -2.30158590495320
  C   -0.82468320457452     -2.76319622658262     -0.69148333575959
  C   0.09465660021927     -3.20491740612577      0.26662004809427
  C   -2.08999418579937     -3.34900298749734     -0.67902008432974
  C   -2.36028491213802     -4.34206952313336      0.24420272480712
  C   -1.35830677609199     -4.73270273183704      1.13692557283716
  N   -0.15754075759907     -4.15069828085101      1.14621463323839
  H   2.28862523971650     -3.10624378831874     -4.36391410912067
  H   4.40798585409196     -3.15257896696049     -5.63609290389069
  H   -1.73722447785392      1.13440312841182     -5.43422516946089
  H   -3.39808114069685      2.90589748445001     -5.90075163132996
  H   -2.45520400845854      1.81015965021334     -1.25618445852382
  H   1.07961378691638     -2.76264219144166      0.32771905159586
  H   -2.84096131496449     -3.05482925146088     -1.39690993555485
  H   -3.32683085072853     -4.82149179885370      0.26358362623583
  H   -4.94305844235197      4.54918151204073     -5.13407819896044
  H   -2.64364616983729     -6.18686197514332      2.09904722052119
  H   9.48914851438587      4.18806449975532     -4.13717226513193
  H   5.22501144828339     -0.93933865587749      3.40157055246279
  H   6.86228469641910      2.63722578540677      1.72894993140407
  H   6.13168984840383     -0.75215810111314     -0.77075949206419
  H   1.54584786549170      7.02428616835049      1.42524421627006
  H   4.43248892328531      5.89948389190822     -1.51981922080870
  H   0.26592886046043      5.82342181658982     -2.47177261890759
  H   -1.79405999707687      3.76479859895392      3.90452181119321
  H   1.36985985514402      1.63726300758100      5.83571460674246
  H   -1.65845012965795     -0.50320166035802      3.70942411516139
  H   0.47249955031692      0.87437226941838     -4.36870839057655
  H   -2.29561268353086     -0.65012937066822     -1.49053879879560
  H   1.44550430379034     -2.62214894826995     -2.11062378152697
  H   4.48053041753259     -7.04830824114339      0.35698129329444
  H   6.29423702587700     -2.03075772083372     -6.55583542661665
  H   2.87195825448902      1.12097285560837     -3.89401819867045
  H   -7.42136004256808      1.18582962291732      0.94920624757850
  H   5.76485523085549      7.10300823228644      7.24734340958569
  H   1.43519992844427     -6.99721087350399      3.53272452850451
  H   -6.74838715095500      5.01092063060030     -1.13913299149462
  H   6.94888563465917      2.29582135394859     -7.18857945757300
