260
Coordinates from ORCA-job trenH
  N   5.68847569431845      8.13079945799525      7.28332448981182
  C   6.34858763137117      7.10388250141748      8.13058260139925
  C   5.38163823780205      5.98879115182047      8.55712140915587
  C   6.63239622907550      8.81197730125071      6.36254495782810
  C   7.11566188002776      7.90258871845237      5.23143736520726
  C   4.97043000732575      9.13398563561847      8.11948831735450
  C   3.69701750755911      9.59874533211973      7.39664729066219
  N   5.38383233844625      4.96958016968532      7.55467946237770
  N   5.99422483897049      7.29573391261509      4.58168631663416
  N   3.08420265309186      8.38344013095250      6.97653110906570
  H   6.78013909632940      7.59988075134724      9.00199161773037
  H   7.15199530426124      6.64124967062084      7.55844155061909
  H   5.66546410308063      5.61042443962492      9.55319079473906
  H   4.35924921654308      6.37545738293089      8.60389791639236
  H   7.48558353901977      9.18037693518673      6.93674739950514
  H   6.10882181031333      9.66017314832455      5.91952595398332
  H   7.75234173338822      8.49160928573519      4.55218611467606
  H   7.73313182594538      7.08973833595686      5.62809061915206
  H   5.63603889506119      9.96734462175820      8.34788104488752
  H   4.67099805353805      8.65624040638717      9.05319576650732
  H   3.08191398707336     10.22224489456956      8.05974808310543
  H   3.94466852363065     10.18792183769456      6.50844766189559
  C   5.59220191410628      3.76488941805496      7.84810934990104
  C   7.56548899145494     -7.46039679950209      3.58064511472797
  C   7.61241624856270      2.46207181714500     -3.87480383619857
  C   6.70125476218768     -1.98145206926752      2.51192311695062
  C   6.38612283546604     -1.21806646040559      3.63418953109603
  C   6.25043481908234      0.16173917205670      3.53964598339953
  C   6.43034507369824      0.78109997763146      2.30558800968078
  C   6.75197442275597      0.03616915485240      1.17498012333870
  C   6.87960643511259     -1.34546074207623      1.28694435091804
  C   6.89611322938408     -3.42769239555948      2.65525004938788
  C   7.86025737993042     -4.11657802487409      1.91767657175937
  C   8.07182938480904     -5.46362584351624      2.15267300853183
  C   7.32702042883565     -6.08541477246138      3.15431230038011
  N   6.38635802048653     -5.43543951676757      3.83990858511426
  C   6.15793230802184     -4.17041346191485      3.58981759971631
  C   5.98995676000811      0.97969077915741      4.72944674630228
  C   6.61153504539708      0.71556067957609      5.94979431153243
  C   6.43568863959257      1.58802392530650      7.00742829341041
  C   5.66060903458293      2.73364848983336      6.81244860555071
  N   5.00324095755097      2.94336631893907      5.67434821443816
  C   5.14989562893465      2.09718062993354      4.68200706048117
  C   6.99511701963613      0.69903912298270     -0.11220160777488
  C   6.58218811353722      0.13247430983231     -1.32570325151578
  C   7.66326757646484      1.92166905352523     -0.18635700155383
  C   7.87654877503852      2.50337387385259     -1.42107229552555
  C   7.42708551442672      1.84162297524686     -2.56907628980345
  N   6.79346595408374      0.67359294356312     -2.50083700282533
  H   8.46552988593377     -3.59709247203643      1.18891411211985
  H   8.81583503472898     -6.01306943478869      1.59540449003540
  H   5.35534505579850     -3.72781849743510      4.16566926260289
  H   7.25470659887998     -0.14584607635829      6.05635644741748
  H   6.92376756547131      1.41153393841359      7.95419184057387
  H   4.56703035262859      2.31482960383707      3.79694919554561
  H   6.03491277059943     -0.80081119782846     -1.33999392537616
  H   8.02741291823744      2.40039509357539      0.71134813244956
  H   8.39177468454584      3.44934961317853     -1.49982648513405
  H   5.79105724201796      3.41955525711883      8.87657101233334
  N   5.17522126160608     -8.23996971410034      6.52305746176345
  C   5.08970787445206     -7.09772630597972      7.46801006122586
  C   5.97445988658368     -5.91428358861682      7.03653955443561
  C   4.08943916064856     -9.23341458661093      6.70846972835146
  C   2.72447330599931     -8.66802833174867      6.30315246061623
  C   6.50508085127353     -8.91092967392395      6.55067922128575
  C   6.94809277019563     -9.19644827919407      5.10763651674163
  N   5.14509644977332     -4.77348676974841      6.81964520533493
  N   2.87971779782963     -7.90376567560932      5.10075190833164
  N   6.79301713523486     -7.93870250192952      4.45253827200057
  H   5.34730001776277     -7.45216986869362      8.46743459729641
  H   4.06240277238326     -6.73530576536000      7.46263061367897
  H   6.78799442961792     -5.72642197053703      7.75461475967508
  H   6.40179904504016     -6.12743204482520      6.04646811161601
  H   4.07231154033377     -9.56031524578342      7.75004380891643
  H   4.31559991475109    -10.08949710766185      6.07073564756257
  H   2.00123091124865     -9.49108165022249      6.21171592413493
  H   2.34514200976238     -7.99459148197113      7.07927975091590
  H   6.45224192667903     -9.82170595382826      7.14759601109576
  H   7.23005078541155     -8.23543939782214      7.00460094378985
  H   6.27943370022514     -9.92411553729514      4.63657058980819
  H   7.96704389159951     -9.60323148433639      5.08217381490050
  N   7.02371806342136      0.43212626509647     -7.37983314058040
  C   7.85751578121009      1.65769910624182     -7.30253075358897
  C   7.40644889055446      2.60924758240480     -6.19305727876740
  C   7.71901706858703     -0.61344754661270     -8.18258849618940
  C   8.61573660952671     -1.46095906477084     -7.26786557456523
  C   5.66113648297168      0.69549154985656     -7.91115650960604
  C   4.62793109124857     -0.31789701230666     -7.39700345966211
  N   7.30182243861973      1.89627150719202     -4.95678954807460
  N   7.76640124159693     -1.79584842113229     -6.17431108228210
  N   4.11539686451313      0.13989937317206     -6.14333498092726
  H   7.83025148089322      2.16756405686667     -8.26822491249292
  H   8.88226066276818      1.34876731287286     -7.09212554393082
  H   8.10321984929261      3.46157935845101     -6.15235567950622
  H   6.41304700906231      3.01418446723840     -6.41302056945899
  H   8.28598914043120     -0.14342145753829     -8.98728701339919
  H   6.96753605705757     -1.27228813128538     -8.61956595964299
  H   9.02512066515561     -2.32058242883428     -7.81609426568820
  H   9.45415289811855     -0.87053720618185     -6.88569098123206
  H   5.70714122887806      0.68437615881102     -9.00178083585851
  H   5.34253543012278      1.68514553151177     -7.58544046692361
  H   5.10964173939505     -1.28087545253764     -7.20305492586766
  H   3.83998911516693     -0.46116989859451     -8.15506467664095
  N   -7.39519086541925      0.73331969855874      0.49121697644737
  C   -6.74629374764969      0.22287139660810     -0.74288811030472
  C   -5.65088018151421      1.17131787959472     -1.26250772764308
  C   -8.17797911375920     -0.30216837830031      1.20880331330206
  C   -7.27219095320126     -1.36855742314999      1.83220179610803
  C   -8.23120354086815      1.94102077565496      0.24256116286470
  C   -7.96908977155829      2.96460953484519      1.35769802319603
  N   -4.40003783452325      0.48542544211257     -1.23950618173289
  N   -6.13329646749931     -0.72273161497030      2.41528914765661
  N   -6.54659680720056      3.06731563601962      1.39422452744368
  H   -7.51762176782106      0.04536793347726     -1.49418093059718
  H   -6.25277114367980     -0.71710254799827     -0.49804084179919
  H   -5.90026763979760      1.58252938613333     -2.25322797596334
  H   -5.51861437127093      1.99486893374248     -0.54701273712012
  H   -8.88879306316836     -0.76116343247373      0.51879546054186
  H   -8.72888003326047      0.19702112652494      2.00754803947755
  H   -7.85306236311855     -1.96776550302767      2.54798567325741
  H   -6.90650613192861     -2.05636576486874      1.06223306120916
  H   -9.28364268909658      1.66225829396943      0.18574814256016
  H   -7.93420590935012      2.38446416349169     -0.70775957922557
  H   -8.31925703518296      2.58085605645033      2.32133701678284
  H   -8.49137014346704      3.90857599823400      1.15605908040266
  C   6.02108476248998      7.09427180000639      3.33821477718475
  C   -5.88796134950134      4.12422061564725      1.58067384814882
  C   2.87775498003001      0.23519678394039     -5.94203623756697
  C   -0.37819165444619      3.63829343166662      0.42755434731940
  C   0.65473446911696      4.30427569251238      1.08061887925714
  C   1.96714074670340      4.20486122322143      0.62737197634112
  C   2.24171404096612      3.41521676487273     -0.48495476086006
  C   1.22106801209832      2.73985016228465     -1.14979025264018
  C   -0.08433715926415      2.85552416238227     -0.68710108695130
  C   -1.77295319490033      3.79421369921042      0.85303349182462
  C   -2.25251553079713      5.00072502903798      1.36587242411228
  C   -3.59600029135352      5.13248652348236      1.66922238035738
  C   -4.43975218589536      4.05088507476378      1.41896185061980
  N   -3.97925319972500      2.89004205240229      0.95245654630239
  C   -2.70119108120699      2.75232204214792      0.70205090070339
  C   3.03710352278387      4.96011865227738      1.29087051983719
  C   4.05688778859186      5.57061642910192      0.55997797068729
  C   5.03706239924833      6.27992525369833      1.22673435855256
  C   4.97202239654515      6.38030788094677      2.62095927833906
  N   3.99849360045584      5.80164772555755      3.31945171886311
  C   3.07847798339842      5.11842008167829      2.68272237016565
  C   1.53114462644227      1.97830901627901     -2.36487660770847
  C   2.70733292225551      1.22930297774535     -2.47993790382967
  C   0.69850007807921      2.00942841091860     -3.48347879903933
  C   1.09813686825451      1.38258536277820     -4.64892970746213
  C   2.34767637029657      0.75875283369517     -4.68326774630904
  N   3.10392535404922      0.65812877052989     -3.59267951445155
  H   -1.58787840440624      5.84277507095161      1.49504897894542
  H   -3.98683656515038      6.05849162550671      2.06380664012893
  H   -2.40591961397372      1.76876688090844      0.35987953911123
  H   4.07059449298504      5.50444186167988     -0.51848033292485
  H   5.83529457586737      6.75910198002657      0.67917655973443
  H   2.33462204979366      4.64897111474143      3.31278729934395
  H   3.35764804562056      1.08438337236865     -1.62756959266161
  H   -0.23628882587685      2.54977934479113     -3.45000679877537
  H   0.47593586624165      1.41121079856695     -5.53088576058125
  H   6.86298014327650      7.42372183258802      2.70783691510593
  H   -6.32886414674004      5.10130982507265      1.81307928521408
  H   2.12226210532561     -0.01394411427418     -6.70610203413142
  C   1.85985487540071      8.10427402402448      7.06516098294404
  C   -5.54389340524082     -1.23554569198952      3.40510590641128
  C   5.45445431131522     -3.62131592292106      7.21581982957833
  C   -0.60603555763940      0.79571047304127      5.29387434945521
  C   -0.42411517826077      2.16337349157377      5.47392531495901
  C   0.78324204446785      2.66714263474181      5.95219352013271
  C   1.81999367039085      1.77960225620848      6.23735637789093
  C   1.66677301201627      0.41426279976560      6.03070343076264
  C   0.44891486845651     -0.07118297687173      5.56194583686269
  C   -1.90194286139471      0.26340236718412      4.85459340537925
  C   -2.42525444848980     -0.90301701545939      5.41329240706313
  C   -3.63795920633019     -1.38606358137387      4.96200208678171
  C   -4.30890252837319     -0.68959366437800      3.95167423883263
  N   -3.82540646791586      0.43891472277269      3.43584360212303
  C   -2.67382887277406      0.89253870138012      3.86957730256077
  C   0.97320365066144      4.10340507905386      6.18250260532804
  C   -0.08557891333919      4.94472248630279      6.52971702875363
  C   0.15326141026363      6.28483366855804      6.78043224201859
  C   1.46809346703233      6.74409107585580      6.71381261927275
  N   2.47909129087825      5.94575523113540      6.37418595853229
  C   2.24818156424231      4.68929511725066      6.09409138842771
  C   2.75231569498237     -0.52686216441356      6.33160977819309
  C   3.00757279434395     -1.62166116250494      5.49866367428685
  C   3.55213967272967     -0.40402633756317      7.46704325557438
  C   4.48887951374500     -1.38178740590630      7.74902046103176
  C   4.58486904497790     -2.48578747084525      6.90001882934849
  N   3.87510519019539     -2.56662906539303      5.77540179496542
  H   -1.89399841835050     -1.41553367656275      6.20242361089961
  H   -4.05978505298111     -2.28812228651140      5.37977145692747
  H   -2.32428442031267      1.79729436155705      3.39027777304529
  H   -1.08757038667896      4.55359465667184      6.63326124205505
  H   -0.65392108186167      6.95072388882191      7.04842279930275
  H   3.12654521930587      4.13282447485161      5.79384778340486
  H   2.48265440786063     -1.73243415649767      4.55907072373620
  H   3.41790354265872      0.43199575647331      8.13816942343321
  H   5.10627706275020     -1.31669782765327      8.63239140355824
  H   1.08478778225632      8.79543460640423      7.41944699894903
  H   6.34982273622435     -3.39851682471267      7.81873045529367
  C   -3.56824988958983      0.55420928124145     -2.17950259145222
  C   7.67992612398400     -2.92736079870172     -5.62939720235251
  C   1.92454614389188     -7.79031222837858      4.28537492874938
  C   3.37740237581230     -3.27739825821283     -1.97819480624148
  C   2.29173773594853     -2.44382173226923     -2.24339777730781
  C   1.16463181778322     -2.45998909744366     -1.43083093550127
  C   1.11341525313716     -3.34421792284420     -0.35623372518355
  C   2.17823606864677     -4.19822648135370     -0.08656297855008
  C   3.31242794841114     -4.14531574586358     -0.89073047828624
  C   4.55173254052937     -3.24316776651513     -2.85667798682113
  C   5.34346863074891     -4.37153747438616     -3.07858944812286
  C   6.41627308363396     -4.29931012888613     -3.95011659458346
  C   6.64836746083571     -3.09414101995546     -4.61216417519365
  N   5.89920220648429     -2.01412288199319     -4.39719390142526
  C   4.91108253558353     -2.06973064168053     -3.54219989450810
  C   0.01693653799316     -1.58686731177991     -1.70458317998216
  C   -0.44179774047273     -1.34012217978797     -2.99790993444610
  C   -1.58914659815634     -0.59006242077050     -3.18221635694534
  C   -2.27687525310881     -0.12561291184925     -2.05961339364190
  N   -1.79969620054431     -0.29710413755510     -0.82738819893093
  C   -0.69496403854527     -0.98529824237238     -0.66066078313586
  C   2.08809625052210     -5.16143488882256      1.01800504229571
  C   3.17293824003887     -5.43630525702465      1.86038970240595
  C   0.90457632094602     -5.85561840753898      1.27031013696452
  C   0.85129662810602     -6.74340452452765      2.32711325468375
  C   1.99063157996383     -6.92070059280025      3.11847136100946
  N   3.12896216826191     -6.27758687165272      2.86548590686090
  H   5.10901158726237     -5.31061971899131     -2.59808579745944
  H   7.03985595751276     -5.16204015563822     -4.13329387727504
  H   0.07691442332864     -1.75912881315783     -3.84796918624052
  H   -1.97186918697963     -0.40169943683395     -4.17407712804474
  H   -0.34638056680951     -1.06451429397611      0.36050041688446
  H   4.11787658058099     -4.92677540452173      1.72638781002076
  H   0.04218531336627     -5.71145152550824      0.63535037961819
  H   -0.05535796732676     -7.29022067307606      2.53976168321507
  H   -3.75236621540727      1.08983035758791     -3.12503616607407
  H   0.96152037198838     -8.30284841743289      4.42754669223204
  H   8.02263005442771      3.48448564850471     -3.84244106100430
  H   6.25203502060552     -1.70360398611084      4.58788822518016
  H   6.33530596247263      1.85358469706025      2.23262841781503
  H   7.13639694509087     -1.92326279265959      0.41256310002899
  H   0.43988577618220      4.92231018065517      1.93846979396176
  H   3.25394792513814      3.33711687142415     -0.85070739254939
  H   -0.88090219169431      2.34013045285943     -1.20010229498210
  H   -1.23980006053379      2.83382536474010      5.25154782795663
  H   2.75506585510022      2.15802144597480      6.61700587696507
  H   0.31956920889869     -1.13288099851856      5.41649183651618
  H   2.32950922691956     -1.77455313025958     -3.08756742849635
  H   0.23311852100178     -3.37404299359657      0.26759763914282
  H   4.14091462320514     -4.80079017229560     -0.67077971775373
  H   8.42846688010434     -7.98682669963146      3.15492041699902
  H   8.29882861494190     -3.79523735983717     -5.89022800311431
  H   4.38563061410455     -1.13278174135923     -3.41039108513532
  H   -5.89740763761844     -2.15716260132627      3.89091308773729
  H   4.95879862622603      7.64882273126419      6.69695290106702
  H   5.05683765083713     -7.82337122061448      5.56708836941252
  H   -6.60977879699389      1.02489138109489      1.12409929464280
  H   6.92452776750010      0.04858625048449     -6.40447145214082
