264
XS-568-LiH-Tren_sq
Li    -0.00001   11.51786  122.44656
Li    -2.95053    5.62877  113.11979
N     -0.00001   11.51786  125.69262
H     -0.00013   11.51761  124.69305
C     -0.73913   10.26759  126.12672
H     -1.18041   10.41119  127.00174
H     -0.11479    9.50464  126.20739
C     -1.80343    9.98943  125.01717
H     -2.27736    9.14038  125.20668
H     -2.47081   10.72053  124.99514
N     -1.11418    9.90132  123.73753
C     -1.26979    8.87853  123.06370
H     -1.85859    8.20509  123.38134
C     -0.57654    8.66603  121.78730
N      0.17057    9.70091  121.35644
C      0.79997    9.54715  120.16913
H      1.32065   10.27230  119.84566
C      0.73713    8.40861  119.39649
C     -0.02095    7.35818  119.87433
H     -0.07923    6.54950  119.37997
C     -0.69325    7.48948  121.06811
H     -1.23271    6.77894  121.39596
C      1.45931    8.34295  118.09741
C      2.63633    9.08240  117.90790
H      2.98224    9.58769  118.63389
C      3.30962    9.10140  116.70277
C      2.77697    8.32049  115.64343
H      3.22669    8.30436  114.80567
C      1.62588    7.58796  115.80379
C      0.96356    7.58796  117.03159
H      0.17252    7.07335  117.14255
C      4.58439    9.85813  116.53432
C      5.37838   10.15874  117.55317
H      5.14419    9.89799  118.43595
C      6.56239   10.85845  117.31506
H      7.13871   11.09445  118.03230
C      6.87260   11.19881  116.02408
N      6.09557   10.95520  115.01171
C      4.96344   10.28314  115.27088
H      4.38631   10.08547  114.54343
C      1.09822    6.79150  114.67318
C     -0.26932    6.47879  114.59381
H     -0.83537    6.80570  115.28351
N     -0.83888    5.74798  113.60897
C     -0.01396    5.27633  112.64357
C      1.32265    5.57003  112.60470
H      1.86324    5.24779  111.89199
C      1.88024    6.33885  113.60735
H      2.80349    6.56208  113.57317
C      8.12244   11.87087  115.54138
H      8.79285   12.05005  116.18946
N      8.36782   12.21986  114.35408
C      9.64259   12.91439  114.10463
H     10.21435   12.86862  114.91096
H      9.47120   13.86668  113.89778
C     -0.62242    4.53343  111.49028
H     -0.06021    4.19197  110.80430
N     -1.90817    4.35202  111.43197
C     -2.38496    3.59184  110.26896
H     -1.62526    3.20769  109.76261
H     -2.91739    4.16598  109.66429
C     -3.29566    2.42911  110.91364
H     -3.66903    1.86465  110.18991
H     -2.73547    1.85337  111.49190
N     -4.40186    3.00098  111.71058
H     -3.99318    3.83805  112.07535
C     -4.56145    2.18206  112.90598
H     -4.44318    1.23396  112.64357
H     -5.49344    2.28366  113.22281
C     -5.55095    3.50200  110.99139
H     -6.23347    2.78652  110.93518
H     -5.27946    3.73431  110.06843
C     -6.16240    4.71310  111.64254
H     -6.57413    4.47484  112.51140
H     -6.85703    5.11225  111.05991
N     -5.00034    5.68233  111.84178
C     -5.44123    6.91935  111.37366
H     -6.31351    7.17161  111.09424
C     -4.16546    7.77455  111.42387
C     -4.40585    8.98565  110.89744
H     -5.26143    9.17454  110.53120
C     -3.44029    9.94624  110.87800
H     -3.60519   10.79781  110.48877
C     -2.16851    9.63353  111.46437
C     -2.02986    8.36023  111.99728
H     -1.18166    8.13050  112.35622
N     -2.97746    7.43765  112.04911
C     -1.05333   10.59412  111.50648
C     -1.29871   11.99699  111.53078
H     -2.19292   12.31428  111.56479
C      1.45232   11.50288  126.12672
H      1.54860   11.04891  127.00174
H      1.80088   12.42504  126.20739
C      2.22537   10.72024  125.01717
H      3.19763   10.73434  125.20668
H      1.92590    9.77672  124.99514
N      1.95705   11.36121  123.73753
C      2.92061   11.73784  123.06370
H      3.79824   11.56464  123.38134
C      2.75802   12.44446  121.78730
N      1.48823   12.57404  121.35644
C      1.30669   13.19600  120.16913
H      0.41835   13.28434  119.84566
C      2.32412   13.71085  119.39649
C      3.61285   13.57954  119.87433
H      4.34233   13.93341  119.37997
C      3.83529   12.93167  121.06811
H      4.72037   12.81975  121.39596
C      2.01989   14.36909  118.09741
C      0.79100   15.01870  117.90790
H      0.18044   15.06562  118.63389
C      0.43789   15.59229  116.70277
C      1.38051   15.52145  115.64343
H      1.16962   15.91899  114.80567
C      2.59044   14.89085  115.80379
C      2.92160   14.31726  117.03159
H      3.76279   13.88951  117.14255
C     -0.85484   16.31791  116.53432
C     -1.51217   16.85522  117.55317
H     -1.16925   16.78278  118.43595
C     -2.71014   17.53074  117.31506
H     -3.20268   17.91185  118.03230
C     -3.16000   17.62922  116.02408
N     -2.56052   17.07809  115.01171
C     -1.41243   16.43367  115.27088
H     -0.95268   16.03269  114.54343
C      3.54403   14.83211  114.67318
C      4.49861   13.80414  114.59381
H      4.49852   13.15048  115.28351
N      5.41629   13.67629  113.60897
C      5.41230   14.62652  112.64357
C      4.48963   15.63721  112.60470
H      4.49841   16.26650  111.89199
C      3.54503   15.73569  113.60735
H      2.89007   16.42363  113.57317
C     -4.36695   18.37558  115.54138
H     -4.85732   18.86658  116.18946
N     -4.79187   18.41359  114.35408
C     -6.03073   19.17031  114.10463
H     -6.27698   19.68835  114.91096
H     -6.76975   18.54574  113.89778
C      6.35990   14.47103  111.49028
H      6.37450   15.12865  110.80430
N      7.15988   13.44824  111.43197
C      8.05661   13.41541  110.26896
H      8.00943   14.26542  109.76261
H      7.82560   12.66724  109.66429
C      9.51890   13.20809  110.91364
H     10.19443   13.16698  110.18991
H      9.73742   13.98111  111.49190
N      9.57676   11.96417  111.71058
H      8.64749   11.89955  112.07535
C     10.36576   12.23541  112.90598
H     11.12770   12.81189  112.64357
H     10.74376   11.37748  113.22281
C      9.71740   10.71851  110.99139
H     10.67829   10.48517  110.93518
H      9.38047   10.83748  110.06843
C      8.97428    9.58343  111.64254
H      9.38649    9.34599  112.51140
H      8.97593    8.78228  111.05991
N      7.55388   10.10519  111.84178
C      6.70303    9.10486  111.37366
H      6.92071    8.22331  111.09424
C      5.32452    9.78211  111.42387
C      4.39587    8.96837  110.89744
H      4.66008    8.13297  110.53120
C      3.08120    9.32428  110.87800
H      2.42617    8.75568  110.48877
C      2.71612   10.58202  111.46437
C      3.74951   11.33875  111.99728
H      3.52436   12.18818  112.35622
N      5.02229   10.97939  112.04911
C      1.32664   11.06750  111.50648
C      0.23441   10.15356  111.53078
H      0.40673    9.22051  111.56479
C     -0.71320   12.78308  126.12672
H     -0.36819   13.09344  127.00174
H     -1.68609   12.62386  126.20739
C     -0.42193   13.84388  125.01717
H     -0.92027   14.67883  125.20668
H      0.54491   14.05630  124.99514
N     -0.84287   13.29102  123.73753
C     -1.65082   13.93717  123.06370
H     -1.93964   14.78382  123.38134
C     -2.18148   13.44306  121.78730
N     -1.65880   12.27860  121.35644
C     -2.10667   11.81040  120.16913
H     -1.73900   10.99691  119.84566
C     -3.06125   12.43409  119.39649
C     -3.59191   13.61582  119.87433
H     -4.26310   14.07064  119.37997
C     -3.14205   14.13240  121.06811
H     -3.48766   14.95486  121.39596
C     -3.47919   11.84150  118.09741
C     -3.42732   10.45245  117.90790
H     -3.16268    9.90023  118.63389
C     -3.74751    9.85985  116.70277
C     -4.15748   10.71160  115.64343
H     -4.39631   10.33020  114.80567
C     -4.21633   12.07474  115.80379
C     -3.88517   12.64833  117.03159
H     -3.93531   13.59069  117.14255
C     -3.72956    8.37751  116.53432
C     -3.86621    7.53958  117.55317
H     -3.97494    7.87278  118.43595
C     -3.85225    6.16435  117.31506
H     -3.93603    5.54724  118.03230
C     -3.71260    5.72552  116.02408
N     -3.53505    6.52025  115.01171
C     -3.55101    7.83674  115.27088
H     -3.43363    8.43539  114.54343
C     -4.64225   12.92994  114.67318
C     -4.22929   14.27061  114.59381
H     -3.66316   14.59737  115.28351
N     -4.57741   15.12927  113.60897
C     -5.39834   14.65070  112.64357
C     -5.81229   13.34631  112.60470
H     -6.36166   13.03927  111.89199
C     -5.42527   12.47901  113.60735
H     -5.69357   11.56784  113.57317
C     -3.75549    4.30710  115.54138
H     -3.93553    3.63692  116.18946
N     -3.57595    3.92010  114.35408
C     -3.61186    2.46885  114.10463
H     -3.93737    1.99657  114.91096
H     -2.70145    2.14113  113.89778
C     -5.73748   15.54910  111.49028
H     -6.31430   15.23293  110.80430
N     -5.25171   16.75329  111.43197
C     -5.67164   17.54629  110.26896
H     -6.38418   17.08044  109.76261
H     -4.90820   17.72032  109.66429
C     -6.22325   18.91634  110.91364
H     -6.52540   19.52192  110.18991
H     -7.00195   18.71907  111.49190
N     -5.17490   19.58841  111.71058
H     -4.65431   18.81594  112.07535
C     -5.80431   20.13608  112.90598
H     -6.68452   20.50770  112.64357
H     -5.25032   20.89241  113.22281
C     -4.16645   20.33303  110.99139
H     -4.44482   21.28186  110.93518
H     -4.10102   19.98176  110.06843
C     -2.81188   20.25702  111.64254
H     -2.81236   20.73272  112.51140
H     -2.11890   20.65901  111.05991
N     -2.55354   18.76603  111.84178
C     -1.26181   18.52934  111.37366
H     -0.60720   19.15863  111.09424
C     -1.15907   16.99689  111.42387
C      0.00997   16.59952  110.89744
H      0.60135   17.24604  110.53120
C      0.35909   15.28303  110.87800
H      1.17902   15.00006  110.48877
C     -0.54761   14.33799  111.46437
C     -1.71965   14.85457  111.99728
H     -2.34270   14.23487  112.35622
N     -2.04482   16.13651  112.04911
C     -0.27331   12.89193  111.50648
C      1.06431   12.40300  111.53078
H      1.78619   13.01876  111.56479
Li     6.57536   11.90715  113.11979
Li    -3.62482   17.01762  113.11979

