260
Coordinates from ORCA-job trenLi
  N   -5.61637966940955      7.90056950465052     -1.62963461375716
  C   -6.73704266874366      7.78731544827067     -0.71525518252499
  C   -7.44687750339287      6.43196843338191     -0.87033050720894
  C   -6.05166728420489      8.01696318009999     -3.00870333879263
  C   -4.89941197803138      7.72509956818044     -3.98456831282971
  C   -4.71190145565236      8.97043387334524     -1.25257513126614
  C   -3.95143780694583      8.62778975095602      0.03952023618963
  N   -6.54235366032104      5.45415830032803     -1.37712433346224
  N   -3.93242101933778      6.87813765474519     -3.36969427768725
  N   -3.85685142204142      7.21489322684025      0.19808393570844
  Li  -4.38127918841902      5.86981443159319     -1.46006172840140
  H   -6.34709601091178      7.86488076156712      0.29641071505953
  H   -7.46831755119039      8.60075604846134     -0.85876726829277
  H   -8.34433156719829      6.52713590876437     -1.50295723203986
  H   -7.78153819068186      6.10358520676120      0.11903652485540
  H   -6.83958070605598      7.28534419562162     -3.16819067626607
  H   -6.46859252868042      9.01521067587637     -3.22468274618451
  H   -4.44907916763313      8.66101101388713     -4.35347262531371
  H   -5.30851608820610      7.19779591874119     -4.85253563874019
  H   -3.99400524360648      9.09455109509496     -2.05927497588323
  H   -5.24170312424454      9.92904344957300     -1.12084681047022
  H   -4.42233987474562      9.10790190178974      0.91277430030029
  H   -2.93543307723579      9.02749419351523     -0.04222849813918
  C   -6.93877073238418      4.62720607027666     -2.24025845212806
  C   -3.77203422513416     -6.93549692828489     -4.54153196639119
  C   3.90676310374656      2.22062239307367     -7.20694320663752
  C   -2.64301242708255     -1.40421161520409     -4.91370653788053
  C   -3.57991816602381     -0.50273091788593     -4.41564609694313
  C   -3.31847088518725      0.86380490478855     -4.41715762676715
  C   -2.10609145053458      1.32682289972068     -4.92062195446639
  C   -1.16197418021639      0.43817656554361     -5.42659612277984
  C   -1.43874247123686     -0.92646403710398     -5.42145372275353
  C   -2.91801160110468     -2.84714166555313     -4.88286948594305
  C   -2.57326409048515     -3.68800797768010     -5.94041135910963
  C   -2.85190837291929     -5.03836071622161     -5.84066404276645
  C   -3.46278937950034     -5.52213214359571     -4.67942227376728
  N   -3.79313050784178     -4.72067470491896     -3.66976717034660
  C   -3.53230221358357     -3.43697835710439     -3.76981941541424
  C   -4.30572413280133      1.81103830364546     -3.88138686118763
  C   -5.67058160692668      1.66776338301338     -4.12920004148138
  C   -6.54912149531534      2.59182446015908     -3.59540484343227
  C   -6.04423538931609      3.63606708069164     -2.81431291475114
  N   -4.74235035516128      3.77304503681087     -2.57557071245860
  C   -3.90896130445608      2.89712375969935     -3.08984493749046
  C   0.12105653452506      0.93422918917448     -5.94256896615007
  C   1.31655432230246      0.24729353804776     -5.69048611823799
  C   0.20946345588476      2.11229035726389     -6.68404296780568
  C   1.45016542140545      2.54420377189195     -7.11423525543226
  C   2.58098170572578      1.78609679178638     -6.79652867039186
  N   2.49639563108222      0.65382696087636     -6.10021347596759
  H   -2.11619325859946     -3.28920201363440     -6.83386773622299
  H   -2.60204593111309     -5.71108962865030     -6.64701597631879
  H   -3.80529763859221     -2.84068310156194     -2.91231772100313
  H   -6.03528516870607      0.86126348908324     -4.74786526319183
  H   -7.60977624454801      2.51001459884601     -3.77868515790379
  H   -2.86831975691830      3.04978660380142     -2.84680397109107
  H   1.31830798262859     -0.66101723820537     -5.10684587290805
  H   -0.67919153585041      2.67255815719695     -6.93388476000007
  H   1.54538012588358      3.45170498645907     -7.69097408058297
  H   -7.97724828449688      4.60680190335395     -2.60130907415356
  N   -6.53896864354716     -7.82329780124205     -2.44366834167428
  C   -7.20221063673861     -7.59500211990815     -3.71368420202683
  C   -7.73949894331123     -6.15749757305033     -3.81195497123402
  C   -7.47548809482936     -7.84032786331454     -1.33574387772500
  C   -6.75036408646034     -7.66919014747327      0.00992704332404
  C   -5.70897010649691     -9.01293255724502     -2.47107947616482
  C   -4.47304932401387     -8.81043352150282     -3.36373579530303
  N   -6.97895939829546     -5.28777147545840     -2.97798895783253
  N   -5.51834618682825     -6.97731986791718     -0.17469785651365
  N   -4.14015273683766     -7.42705187466669     -3.44202548140424
  Li  -5.09027213394248     -5.97577828830300     -2.08643281543757
  H   -6.46849138543265     -7.74904091605627     -4.50084730984638
  H   -8.02953655176388     -8.30584352489740     -3.87869642723956
  H   -8.81434052219159     -6.12067944664112     -3.57097957788127
  H   -7.62743289178081     -5.81847438466593     -4.84687311340491
  H   -8.16274323606062     -7.00919749705719     -1.47134897404575
  H   -8.06939908263448     -8.76973658848356     -1.31462998282580
  H   -6.60317269177920     -8.64303831651103      0.50468427326516
  H   -7.38299282751530     -7.06383929518712      0.66712232851424
  H   -5.37860938761328     -9.20811396446339     -1.45407673054400
  H   -6.26990606410584     -9.89670140303224     -2.81942078947005
  H   -3.62873925100138     -9.33694557579003     -2.90692034355267
  H   -4.63113708885998     -9.25124565016916     -4.36139485446614
  N   6.73385959563291     -0.38280691408346     -7.94172241033707
  C   6.71580740327426      0.96881353820421     -8.44706076309641
  C   6.21335865849606      1.94760001842662     -7.37143439516647
  C   6.28584827050871     -1.38870505238081     -8.87437345199771
  C   4.75067652273219     -1.48957195495205     -8.87435026385122
  C   7.91033505391832     -0.73478229666453     -7.18362573660496
  C   7.53697170413111     -1.58938030466436     -5.95991758047713
  N   4.92659080687499      1.53488788866596     -6.93441298902373
  N   4.30416868729431     -1.77169833632467     -7.55592226747563
  N   6.59689358921919     -0.87800095825942     -5.16792149971771
  Li  4.67614821388788     -0.36749637933186     -5.97688655282174
  H   7.70728348614549      1.30147392519596     -8.79232596683686
  H   6.03375994370636      1.01821699646726     -9.29763550253460
  H   6.21759725749525      2.96683076440866     -7.79134601900442
  H   6.88513792440337      1.90340059332703     -6.51352951663748
  H   6.62713743505251     -1.19026734858578     -9.90262159265113
  H   6.69015029853848     -2.35568360287467     -8.57023950590624
  H   4.44738656596190     -2.25874201078025     -9.60347223397503
  H   4.33399542193462     -0.52494481755684     -9.16630716655860
  H   8.65000753155564     -1.28444041745844     -7.78676915307623
  H   8.38588854425013      0.18028170314992     -6.82647803429341
  H   7.05553281816160     -2.50581188298626     -6.30283358756406
  H   8.45875950609672     -1.84037343734860     -5.40995927311139
  N   3.48095982153327     -1.09825271351438      8.26170977791197
  C   4.89232837106745     -0.91787054802151      8.02095099935466
  C   5.12733747078104     -0.04474667234657      6.77590759230930
  C   3.09718440364563     -2.42696551694385      8.67348233755327
  C   2.92134733929618     -3.34828516416316      7.45345400862390
  C   2.84406451813762     -0.02609635433555      8.98774212004062
  C   1.45156842076510      0.27643842057460      8.40744628308848
  N   4.47466039879230     -0.64079914399917      5.66421513647328
  N   1.95675348915528     -2.78000646639687      6.57939675011776
  N   1.58058272347378      0.58660486594171      7.02744931728991
  Li  2.33947251654891     -0.87993459853789      5.65413562969397
  H   5.40937229796803     -0.45858177913997      8.87807583701615
  H   5.34675869677999     -1.89398580222081      7.84227241532950
  H   6.21324938256560      0.06997654525441      6.62541156632299
  H   4.67561607583929      0.93410284174595      6.94033425963812
  H   3.82993091094543     -2.88237997044743      9.35797600486504
  H   2.14170311235465     -2.37135432745106      9.19792385325473
  H   2.63992312848600     -4.35335218612139      7.80804070499233
  H   3.86712054549865     -3.40257043917342      6.91338875545577
  H   2.73880419762466     -0.25010088952234     10.06101199766274
  H   3.45435983528888      0.87373924809863      8.89362894602638
  H   0.83313133622244     -0.61808236031411      8.48940989663627
  H   0.99665845594390      1.09411093454162      8.99029167455214
  C   -2.70601821147687      7.09651630310388     -3.55444035023336
  C   1.37025045639518      1.75583689368309      6.61114939822944
  C   6.91917580049563     -0.43482531546129     -4.03465583685398
  C   1.93299101074982      2.84639239730310      1.08531275307300
  C   1.04163474280861      3.67655579233303      0.41194982028086
  C   1.15710924782117      3.87760906979509     -0.96076445354116
  C   2.17438840332581      3.23689045852341     -1.66130935390040
  C   3.06926684382167      2.39746348411376     -1.00313070122376
  C   2.94359531126424      2.20953614686577      0.37006447848386
  C   1.79936953747101      2.63084229672051      2.53239712070486
  C   1.44276638335312      3.66338509487691      3.39980366921901
  C   1.30532584325982      3.39127084564698      4.74810969571682
  C   1.53218129683729      2.08960617159604      5.20497127668667
  N   1.88590775331270      1.10576257964962      4.37985128782845
  C   2.01179473578863      1.36630144707138      3.09871821877327
  C   0.20225346959916      4.74484470562281     -1.66443471027539
  C   0.60629400179993      5.61582266593046     -2.67591542297189
  C   -0.34341496179478      6.39850419226366     -3.30530277889059
  C   -1.68197768834439      6.28643422461018     -2.91636875260862
  N   -2.06916235981281      5.45630150648736     -1.95115652820935
  C   -1.16315015259691      4.71877685407949     -1.34992900591019
  C   4.12164022029620      1.70027607697880     -1.75448450834520
  C   3.86622080768031      1.16417409694826     -3.02424611288340
  C   5.40387659704963      1.52154634430506     -1.23562487891558
  C   6.33902508650689      0.82665589875632     -1.97975182417375
  C   5.97379427988145      0.32537158902130     -3.23264953037967
  N   4.75347389746264      0.50623656476086     -3.73465706539709
  H   1.29154193855108      4.66605515211951      3.02852408900800
  H   1.03108209811381      4.17286663241745      5.44030705323375
  H   2.27102398589609      0.52097071238293      2.47913395621947
  H   1.64810301076559      5.69661520921243     -2.94867726222671
  H   -0.05715387677610      7.08676283874662     -4.08609072169465
  H   -1.54034633933505      4.05263463098926     -0.58890649273935
  H   2.88825658266424      1.25125078426717     -3.47334412898069
  H   5.67036044430141      1.93420379672544     -0.27395667655008
  H   7.33886883977320      0.67610746421734     -1.60178169958472
  H   -2.34504035289770      7.90446445044062     -4.20722279431925
  H   1.04378734737545      2.56984045493783      7.27386636074485
  H   7.91058892304285     -0.60732737395009     -3.59228187651675
  C   -4.01497760779837      6.70361240974061      1.33805485309984
  C   0.82616835232189     -3.31515588441245      6.43766177619806
  C   -7.56302518987739     -4.39355479585309     -2.31077935984420
  C   -2.92634926197115     -0.92685885325361      2.93744813490235
  C   -2.99660333490255      0.46184424301997      2.86493517676482
  C   -3.84444302332090      1.08228524168834      1.95269414274014
  C   -4.63406236732976      0.30156263576052      1.11283775072896
  C   -4.57809561471145     -1.08723389961594      1.17743438555279
  C   -3.71976220699213     -1.69443728957246      2.09000257552082
  C   -2.00789990426499     -1.57490113129799      3.88361162412046
  C   -2.36258024239639     -2.72918768962839      4.58145960705750
  C   -1.44103998411043     -3.30856758867290      5.43359530921734
  C   -0.18076841127046     -2.71969161901377      5.57347424440080
  N   0.15464796518478     -1.61038473483381      4.91702572776321
  C   -0.72194684098244     -1.06367374360072      4.10597453850179
  C   -3.89342763684680      2.54801098604340      1.85991435153958
  C   -3.88060315197811      3.35988406076007      2.99343062869210
  C   -3.92134926630041      4.73253862629279      2.83451187889623
  C   -3.96568690377917      5.26563972189431      1.54249910885785
  N   -3.97715079451833      4.49194637820359      0.45990668142277
  C   -3.94365331313750      3.18766465596951      0.61414242884863
  C   -5.40433488214452     -1.90818132931672      0.28143688272969
  C   -4.88381144429397     -3.05676370639649     -0.32973131882603
  C   -6.72900155271854     -1.57894648332243     -0.00415980622565
  C   -7.45268049627945     -2.39158697064833     -0.85665555030378
  C   -6.83183237495502     -3.51322223481561     -1.41498253559495
  N   -5.56724012711893     -3.82731288160302     -1.14536999760104
  H   -3.34811096924323     -3.15673475732161      4.47159790853209
  H   -1.69080191085028     -4.20119248478222      5.98687808355723
  H   -0.38050358386674     -0.18418053461885      3.58083002769556
  H   -3.86235843807447      2.92467750240464      3.98164007046018
  H   -3.91954881571108      5.38455430406284      3.69484240789160
  H   -3.93632514256331      2.61316806992059     -0.29974412949946
  H   -3.85928045381707     -3.35308186085883     -0.16342928161980
  H   -7.19171415318185     -0.71625060352223      0.45177962457654
  H   -8.48189095218624     -2.16414260924990     -1.08959518351247
  H   -4.19389254754878      7.31316492649218      2.23568594990313
  H   -8.64864735878234     -4.22951162804834     -2.37059411752174
  C   5.14217601647553     -1.15568931027442      4.72939175008257
  C   3.79794222416917     -2.89004448971274     -7.27731800788183
  C   -4.49380455040195     -7.35097097971021      0.45512651970434
  C   2.07993584302969     -3.89179455218958     -1.97768614416824
  C   2.82088133395651     -3.37579724359734     -0.91768343467092
  C   2.39123358794170     -3.53969132270264      0.39587152509991
  C   1.20963230773278     -4.23238410945897      0.64580003284620
  C   0.45698600697336     -4.75087001270745     -0.40320786468067
  C   0.89686686531256     -4.57523964653608     -1.71212015012015
  C   2.53218049445200     -3.69992797771166     -3.36221366282955
  C   2.38996323806162     -4.69731370154823     -4.32700511014925
  C   2.80920480155267     -4.44648349131840     -5.62008265476870
  C   3.36904383556877     -3.20179053780331     -5.92318156620191
  N   3.51647854628537     -2.25282770213381     -5.00042419648492
  C   3.11267632589113     -2.49223806907709     -3.77373542048983
  C   3.16314983186452     -2.96607004329759      1.50633318018597
  C   4.55759017094048     -2.98048818963613      1.52166084333575
  C   5.22366493602308     -2.39226823445830      2.58072192107885
  C   4.48037741337410     -1.80437303600262      3.60859574408132
  N   3.14852189012175     -1.80107262776304      3.60110630478961
  C   2.51839564871146     -2.35601095271966      2.59117104802064
  C   -0.80058732685069     -5.46167451798304     -0.13476090698472
  C   -1.93306328811349     -5.25011885466899     -0.93252342946381
  C   -0.92493690035059     -6.36189648333553      0.92293707417550
  C   -2.13776201565579     -6.99306547017379      1.12644492394823
  C   -3.20582678128978     -6.70329415983849      0.27144818126797
  N   -3.08864575603448     -5.84418890968573     -0.73796616740120
  H   1.97396312392093     -5.65904874696826     -4.06626374080458
  H   2.71084716315098     -5.20182931070394     -6.38497451318056
  H   5.11126898187924     -3.45788618854413      0.72686689083642
  H   6.30250304258831     -2.39078880466820      2.61754190906873
  H   1.44116720291120     -2.29339637937190      2.62807010618102
  H   -1.90430250968321     -4.55041029632917     -1.75417642512136
  H   -0.08095819239475     -6.58165501553632      1.55982922551868
  H   -2.26013439443667     -7.69960164732332      1.93329523019251
  H   6.24092755380745     -1.13280982933911      4.70445056521656
  H   -4.51803486986511     -8.18042547927930      1.17675212721330
  H   3.96371435862760      3.17506517959764     -7.74931585535689
  H   -4.51774429748142     -0.86931113487929     -4.02953542200432
  H   -1.90200167315305      2.38580016467845     -4.92163958531794
  H   -0.71233416213217     -1.61800345421122     -5.81770718598765
  H   0.25495890367207      4.17438607802015      0.95617221306242
  H   2.27397616997903      3.39229155635038     -2.72373844695204
  H   3.63705235265247      1.56648981854853      0.88810049814495
  H   -2.38916768872145      1.06073974733664      3.52470872548823
  H   -5.29735236535643      0.78062457698447      0.41024476447044
  H   -3.67535435940979     -2.77069567626864      2.14135815529328
  H   3.73851547338335     -2.84618197439856     -1.11870433619464
  H   0.87710418834166     -4.36918379414851      1.66252285549774
  H   0.31469470610182     -4.97882293669695     -2.52514564912023
  H   -3.66273206809984     -7.54463527367851     -5.45048658599979
  H   3.64170181518733     -3.67280320366931     -8.03319664922826
  H   3.23095973253437     -1.67293120288331     -3.08056600262413
  H   0.54852599393826     -4.25269961836895      6.94016531829109
